* Copyright 2020 The SkyWater PDK Authors
*
* Licensed under the Apache License, Version 2.0 (the "License");
* you may not use this file except in compliance with the License.
* You may obtain a copy of the License at
*
*     https://www.apache.org/licenses/LICENSE-2.0
*
* Unless required by applicable law or agreed to in writing, software
* distributed under the License is distributed on an "AS IS" BASIS,
* WITHOUT WARRANTIES OR CONDITIONS OF ANY KIND, either express or implied.
* See the License for the specific language governing permissions and
* limitations under the License.

* SKY130 Spice File.
.param sky130_fd_pr__pfet_01v8__toxe_slope_spectre = 0.0
.param sky130_fd_pr__pfet_01v8__vth0_slope_spectre = 0.0
.param sky130_fd_pr__pfet_01v8__voff_slope_spectre = 0.0
.param sky130_fd_pr__pfet_01v8__nfactor_slope_spectre = 0.0
* statistics {
*   process {
*   }
*   mismatch {
*     vary sky130_fd_pr__pfet_01v8__toxe_slope_spectre dist=gauss std = 1.0
*     vary sky130_fd_pr__pfet_01v8__vth0_slope_spectre dist=gauss std = 1.0
*     vary sky130_fd_pr__pfet_01v8__voff_slope_spectre dist=gauss std = 1.0
*     vary sky130_fd_pr__pfet_01v8__nfactor_slope_spectre dist=gauss std = 1.0
*   }
* }
.subckt  sky130_fd_pr__pfet_01v8 d g s b
+ 
.param  l = 1 w = 1 ad = 0 as = 0 pd = 0 ps = 0 nrd = 0 nrs = 0 sa = 0 sb = 0 sd = 0 mult = 1 nf = 1.0
msky130_fd_pr__pfet_01v8 d g s b sky130_fd_pr__pfet_01v8__model l = {l} w = {w} ad = {ad} as = {as} pd = {pd} ps = {ps} nrd = {nrd} nrs = {nrs} sa = {sa} sb = {sb} sd = {sd} nf = {nf}
.model sky130_fd_pr__pfet_01v8__model.0 pmos
* DC IV MOS Parameters
+ lmin = 2.0e-05 lmax = 1.0e-04 wmin = 7e-06 wmax = 1.0e-4
+ level = 54.0
+ tnom = 30.0
+ version = 4.5
+ toxm = 4.23e-9
+ xj = 1.5e-7
+ lln = 1.0
+ lwn = 1.0
+ wln = 1.0
+ wwn = 1.0
+ lint = -1.3994e-8
+ ll = 0.0
+ lw = 0.0
+ lwl = 0.0
+ wint = 7.3039e-9
+ wl = 0.0
+ ww = 0.0
+ wwl = 0.0
+ xl = 0.0
+ xw = 0.0
+ mobmod = 0.0
+ binunit = 2.0
+ dwg = -5.722e-9
+ dwb = -1.7864e-8
* BSIM4 - Model Selectors
+ igcmod = 0.0
+ igbmod = 0.0
+ rgatemod = 0.0
+ rbodymod = 1.0
+ trnqsmod = 0.0
+ acnqsmod = 0.0
+ fnoimod = 1.0
+ tnoimod = 1.0
+ permod = 1.0
+ geomod = 0.0
+ rdsmod = 0.0
+ tempmod = 0.0
+ lintnoi = -2.0e-7
+ vfbsdoff = 0.0
+ lambda = 0.0
+ vtl = 0.0
+ lc = 5.0e-9
+ xn = 3.0
+ rnoia = 0.69
+ rnoib = 0.34
+ tnoia = 25000000.0
+ tnoib = 0.0
* BSIM4 - Process Parameters
+ epsrox = 3.9
+ toxe = {4.23e-09+sky130_fd_pr__pfet_01v8__toxe_slope_spectre*(4.23e-09*(sky130_fd_pr__pfet_01v8__toxe_slope/sqrt(l*w*mult)))}
+ dtox = 0.0
+ ndep = 1.7000000000000000e+17
+ nsd = 1.0e+20
+ rshg = 0.1
+ rsh = 1.0
* Threshold Voltage Parameters
+ vth0 = {-1.05956087+sky130_fd_pr__pfet_01v8__vth0_slope_spectre*(sky130_fd_pr__pfet_01v8__vth0_slope/sqrt(l*w*mult))}
+ k1 = 0.43448553
+ k2 = 0.019777346
+ k3 = -15.845
+ dvt0 = 4.4955
+ dvt1 = 0.294
+ dvt2 = 0.015
+ dvt0w = -4.9772
+ dvt1w = 1147200.0
+ dvt2w = -0.00896
+ w0 = 0.0
+ k3b = 2.0
* NEW BSIM4 Parameters for Level 54
+ phin = 0.0
+ lpe0 = 0.0
+ lpeb = 0.0
+ vbm = -3.0
+ dvtp0 = 0.0
+ dvtp1 = 0.0
* Mobility Parameters
+ vsat = 160312.5
+ ua = -5.6585471e-10
+ ub = 9.3302446e-19
+ uc = -6.6549964e-11
+ rdsw = 547.88
+ prwb = -0.32348
+ prwg = 0.1376
+ wr = 1.0
+ u0 = 0.0104767
+ a0 = 1.236661
+ keta = 0.0051290095
+ a1 = 0.0
+ a2 = 0.9995
+ ags = 0.2260578
+ b0 = 0.0
+ b1 = 0.0
* BSIM4 - Mobility Parameters
+ eu = 1.67
+ rdswmin = 0.0
+ rdw = 0.0
+ rdwmin = 0.0
+ rsw = 0.0
+ rswmin = 0.0
* Subthreshold Current Parameters
+ voff = {-0.25706245+sky130_fd_pr__pfet_01v8__voff_slope_spectre*(sky130_fd_pr__pfet_01v8__voff_slope/sqrt(l*w*mult))}
+ nfactor = {1.3376708+sky130_fd_pr__pfet_01v8__nfactor_slope_spectre*(sky130_fd_pr__pfet_01v8__nfactor_slope/sqrt(l*w*mult))}
+ up = 0.0
+ ud = 0.0
+ lp = 1.0
+ tvfbsdoff = 0.0
+ tvoff = 0.0
+ cit = 1.0e-5
+ cdsc = 0.00013
+ cdscb = 0.00078
+ cdscd = 0.0
+ eta0 = 0.08
+ etab = -0.07
+ dsub = 0.56
* BSIM4 - Sub-threshold parameters
+ voffl = 0.0
+ minv = 0.0
* Rout Parameters
+ pclm = 0.0015228006
+ pdiblc1 = 0.39
+ pdiblc2 = 0.0029632464
+ pdiblcb = -0.025
+ drout = 0.56
+ pscbe1 = 800000000.0
+ pscbe2 = 9.3760948e-9
+ pvag = 0.0
+ delta = 0.01
+ alpha0 = 1.0e-10
+ alpha1 = 1.0e-10
+ beta0 = 4.6464006
* BSIM4 - Rout Parameters
+ fprout = 0.0
+ pdits = 0.0
+ pditsl = 0.0
+ pditsd = 0.0
* BSIM4 - Gate Induced Drain Leakage Model Parameters
+ agidl = 3.2358e-10
+ bgidl = 1181082000.0
+ cgidl = 300.0
+ egidl = 0.1
* BSIM4 - Gate Leakage Current Parameters
+ aigbacc = 0.43
+ bigbacc = 0.054
+ cigbacc = 0.075
+ nigbacc = 1.0
+ aigbinv = 0.35
+ bigbinv = 0.03
+ cigbinv = 0.006
+ eigbinv = 1.1
+ nigbinv = 3.0
+ aigc = 0.43
+ bigc = 0.054
+ cigc = 0.075
+ nigc = 1.0
+ aigsd = 0.43
+ bigsd = 0.054
+ cigsd = 0.075
+ dlcig = 0.0
+ poxedge = 1.0
+ pigcd = 1.0
+ ntox = 1.0
+ toxref = 4.23e-9
* Temperature Effects Parameters
+ kt1 = -0.4485
+ kt2 = -0.0075706
+ at = 90900.0
+ ute = -0.33954
+ ua1 = 1.6104e-9
+ ub1 = -5.609e-19
+ uc1 = -1.0858e-10
+ kt1l = 0.0
+ prt = 0.0
* BSIM4 - High Speed RF Model Parameters
+ xrcrg1 = 12.0
+ xrcrg2 = 1.0
+ rbpb = 50.0
+ rbpd = 50.0
+ rbps = 50.0
+ rbdb = 50.0
+ rbsb = 50.0
+ gbmin = 1.0e-12
* BSIM4 - Flicker and Thermal Noise Parameters
+ noia = 1.5e+42
+ noib = 0.0
+ noic = 0.0
+ em = 41000000.0
+ af = 1.0
+ ef = 1.0
+ kf = 0.0
+ ntnoi = 1.0
* BSIM4 - Layout Dependent Parasitic Model Parameters
+ dmcg = 0.0
+ dmcgt = 0.0
+ dmdg = 0.0
+ xgw = 0.0
+ xgl = 0.0
+ ngcon = 1.0
* Diode DC IV Parameters
* BSIM4 - Diode DC IV parameters
+ diomod = 1.0
+ njs = 1.3632
+ jss = 2.1483e-5
+ jsws = 8.04e-10
+ xtis = 5.2
+ bvs = 12.69
+ xjbvs = 1.0
+ ijthsrev = 0.1
+ ijthsfwd = 0.1
* Diode and FET Capacitance Parameters
+ tpb = 0.0020386
+ tpbsw = 0.001246
+ tpbswg = 0.0
+ tcj = 0.0012407
+ tcjsw = 0.00037357
+ tcjswg = 2.0e-12
+ cgdo = 5.248925e-11
+ cgso = 5.248925e-11
+ cgbo = 0.0
+ capmod = 2.0
+ xpart = 0.0
+ cgsl = 9.54827175e-12
+ cgdl = 9.54827175e-12
+ cf = 1.2e-11
+ clc = 1.0e-7
+ cle = 0.6
+ dlc = -3.0e-9
+ dwc = 0.0
+ vfbcv = -0.14469
+ acde = 0.8
+ moin = 18.13
+ noff = 3.9
+ voffcv = -0.10701
+ ngate = 1.0e+23
+ lwc = 0.0
+ llc = 0.0
+ lwlc = 0.0
+ wlc = 0.0
+ wwc = 0.0
+ wwlc = 0.0
* BSIM4 - FET and Diode capacitance parameters
+ ckappas = 0.6
+ cjs = 0.0007380194454
+ mjs = 0.34629
+ pbs = 0.6587
+ cjsws = 9.888892e-11
+ mjsws = 0.29781
+ pbsws = 0.7418
+ cjswgs = 2.39155046e-10
+ mjswgs = 0.9274
+ pbswgs = 1.4338
* Stress Parameters
+ saref = 3.0e-6
+ sbref = 3.0e-6
+ wlod = {0+sky130_fd_pr__pfet_01v8__wlod_diff}
+ kvth0 = {0+sky130_fd_pr__pfet_01v8__kvth0_diff}
+ lkvth0 = {0+sky130_fd_pr__pfet_01v8__lkvth0_diff}
+ wkvth0 = {0+sky130_fd_pr__pfet_01v8__wkvth0_diff}
+ pkvth0 = 0.0
+ llodvth = 0.0
+ wlodvth = 1.0
+ stk2 = 0.0
+ lodk2 = 1.0
+ lodeta0 = 1.0
+ ku0 = {0+sky130_fd_pr__pfet_01v8__ku0_diff}
+ lku0 = {0+sky130_fd_pr__pfet_01v8__lku0_diff}
+ wku0 = {0+sky130_fd_pr__pfet_01v8__wku0_diff}
+ pku0 = 0.0
+ llodku0 = 0.0
+ wlodku0 = 1.0
+ kvsat = {0+sky130_fd_pr__pfet_01v8__kvsat_diff}
+ steta0 = 0.0
+ tku0 = 0.0
.model sky130_fd_pr__pfet_01v8__model.1 pmos
* DC IV MOS Parameters
+ lmin = 8e-06 lmax = 2.0e-05 wmin = 7e-06 wmax = 1.0e-4
+ level = 54.0
+ tnom = 30.0
+ version = 4.5
+ toxm = 4.23e-9
+ xj = 1.5e-7
+ lln = 1.0
+ lwn = 1.0
+ wln = 1.0
+ wwn = 1.0
+ lint = -1.3994e-8
+ ll = 0.0
+ lw = 0.0
+ lwl = 0.0
+ wint = 7.3039e-9
+ wl = 0.0
+ ww = 0.0
+ wwl = 0.0
+ xl = 0.0
+ xw = 0.0
+ mobmod = 0.0
+ binunit = 2.0
+ dwg = -5.722e-9
+ dwb = -1.7864e-8
* BSIM4 - Model Selectors
+ igcmod = 0.0
+ igbmod = 0.0
+ rgatemod = 0.0
+ rbodymod = 1.0
+ trnqsmod = 0.0
+ acnqsmod = 0.0
+ fnoimod = 1.0
+ tnoimod = 1.0
+ permod = 1.0
+ geomod = 0.0
+ rdsmod = 0.0
+ tempmod = 0.0
+ lintnoi = -2.0e-7
+ vfbsdoff = 0.0
+ lambda = 0.0
+ vtl = 0.0
+ lc = 5.0e-9
+ xn = 3.0
+ rnoia = 0.69
+ rnoib = 0.34
+ tnoia = 25000000.0
+ tnoib = 0.0
* BSIM4 - Process Parameters
+ epsrox = 3.9
+ toxe = {4.23e-09+sky130_fd_pr__pfet_01v8__toxe_slope_spectre*(4.23e-09*(sky130_fd_pr__pfet_01v8__toxe_slope/sqrt(l*w*mult)))}
+ dtox = 0.0
+ ndep = 1.7000000000000000e+17
+ nsd = 1.0e+20
+ rshg = 0.1
+ rsh = 1.0
* Threshold Voltage Parameters
+ vth0 = {-1.05956087+sky130_fd_pr__pfet_01v8__vth0_slope_spectre*(sky130_fd_pr__pfet_01v8__vth0_slope/sqrt(l*w*mult))}
+ k1 = 0.43448553
+ k2 = 0.019777346
+ k3 = -15.845
+ dvt0 = 4.4955
+ dvt1 = 0.294
+ dvt2 = 0.015
+ dvt0w = -4.9772
+ dvt1w = 1147200.0
+ dvt2w = -0.00896
+ w0 = 0.0
+ k3b = 2.0
* NEW BSIM4 Parameters for Level 54
+ phin = 0.0
+ lpe0 = 0.0
+ lpeb = 0.0
+ vbm = -3.0
+ dvtp0 = 0.0
+ dvtp1 = 0.0
* Mobility Parameters
+ vsat = 160312.5
+ ua = -5.6585471e-10
+ ub = 9.3302446e-19
+ uc = -6.6549964e-11
+ rdsw = 547.88
+ prwb = -0.32348
+ prwg = 0.1376
+ wr = 1.0
+ u0 = 0.0104767
+ a0 = 1.236661
+ keta = 0.0051290095
+ a1 = 0.0
+ a2 = 0.9995
+ ags = 0.2260578
+ b0 = 0.0
+ b1 = 0.0
* BSIM4 - Mobility Parameters
+ eu = 1.67
+ rdswmin = 0.0
+ rdw = 0.0
+ rdwmin = 0.0
+ rsw = 0.0
+ rswmin = 0.0
* Subthreshold Current Parameters
+ voff = {-0.25706245+sky130_fd_pr__pfet_01v8__voff_slope_spectre*(sky130_fd_pr__pfet_01v8__voff_slope/sqrt(l*w*mult))}
+ nfactor = {1.3376708+sky130_fd_pr__pfet_01v8__nfactor_slope_spectre*(sky130_fd_pr__pfet_01v8__nfactor_slope/sqrt(l*w*mult))}
+ up = 0.0
+ ud = 0.0
+ lp = 1.0
+ tvfbsdoff = 0.0
+ tvoff = 0.0
+ cit = 1.0e-5
+ cdsc = 0.00013
+ cdscb = 0.00078
+ cdscd = 0.0
+ eta0 = 0.08
+ etab = -0.07
+ dsub = 0.56
* BSIM4 - Sub-threshold parameters
+ voffl = 0.0
+ minv = 0.0
* Rout Parameters
+ pclm = 0.0015228006
+ pdiblc1 = 0.39
+ pdiblc2 = 0.0029632464
+ pdiblcb = -0.025
+ drout = 0.56
+ pscbe1 = 800000000.0
+ pscbe2 = 9.3760948e-9
+ pvag = 0.0
+ delta = 0.01
+ alpha0 = 1.0e-10
+ alpha1 = 1.0e-10
+ beta0 = 4.6464006
* BSIM4 - Rout Parameters
+ fprout = 0.0
+ pdits = 0.0
+ pditsl = 0.0
+ pditsd = 0.0
* BSIM4 - Gate Induced Drain Leakage Model Parameters
+ agidl = 3.2358e-10
+ bgidl = 1181082000.0
+ cgidl = 300.0
+ egidl = 0.1
* BSIM4 - Gate Leakage Current Parameters
+ aigbacc = 0.43
+ bigbacc = 0.054
+ cigbacc = 0.075
+ nigbacc = 1.0
+ aigbinv = 0.35
+ bigbinv = 0.03
+ cigbinv = 0.006
+ eigbinv = 1.1
+ nigbinv = 3.0
+ aigc = 0.43
+ bigc = 0.054
+ cigc = 0.075
+ nigc = 1.0
+ aigsd = 0.43
+ bigsd = 0.054
+ cigsd = 0.075
+ dlcig = 0.0
+ poxedge = 1.0
+ pigcd = 1.0
+ ntox = 1.0
+ toxref = 4.23e-9
* Temperature Effects Parameters
+ kt1 = -0.4485
+ kt2 = -0.0075706
+ at = 90900.0
+ ute = -0.33954
+ ua1 = 1.6104e-9
+ ub1 = -5.609e-19
+ uc1 = -1.0858e-10
+ kt1l = 0.0
+ prt = 0.0
* BSIM4 - High Speed RF Model Parameters
+ xrcrg1 = 12.0
+ xrcrg2 = 1.0
+ rbpb = 50.0
+ rbpd = 50.0
+ rbps = 50.0
+ rbdb = 50.0
+ rbsb = 50.0
+ gbmin = 1.0e-12
* BSIM4 - Flicker and Thermal Noise Parameters
+ noia = 1.5e+42
+ noib = 0.0
+ noic = 0.0
+ em = 41000000.0
+ af = 1.0
+ ef = 1.0
+ kf = 0.0
+ ntnoi = 1.0
* BSIM4 - Layout Dependent Parasitic Model Parameters
+ dmcg = 0.0
+ dmcgt = 0.0
+ dmdg = 0.0
+ xgw = 0.0
+ xgl = 0.0
+ ngcon = 1.0
* Diode DC IV Parameters
* BSIM4 - Diode DC IV parameters
+ diomod = 1.0
+ njs = 1.3632
+ jss = 2.1483e-5
+ jsws = 8.04e-10
+ xtis = 5.2
+ bvs = 12.69
+ xjbvs = 1.0
+ ijthsrev = 0.1
+ ijthsfwd = 0.1
* Diode and FET Capacitance Parameters
+ tpb = 0.0020386
+ tpbsw = 0.001246
+ tpbswg = 0.0
+ tcj = 0.0012407
+ tcjsw = 0.00037357
+ tcjswg = 2.0e-12
+ cgdo = 5.248925e-11
+ cgso = 5.248925e-11
+ cgbo = 0.0
+ capmod = 2.0
+ xpart = 0.0
+ cgsl = 9.54827175e-12
+ cgdl = 9.54827175e-12
+ cf = 1.2e-11
+ clc = 1.0e-7
+ cle = 0.6
+ dlc = -3.0e-9
+ dwc = 0.0
+ vfbcv = -0.14469
+ acde = 0.8
+ moin = 18.13
+ noff = 3.9
+ voffcv = -0.10701
+ ngate = 1.0e+23
+ lwc = 0.0
+ llc = 0.0
+ lwlc = 0.0
+ wlc = 0.0
+ wwc = 0.0
+ wwlc = 0.0
* BSIM4 - FET and Diode capacitance parameters
+ ckappas = 0.6
+ cjs = 0.0007380194454
+ mjs = 0.34629
+ pbs = 0.6587
+ cjsws = 9.888892e-11
+ mjsws = 0.29781
+ pbsws = 0.7418
+ cjswgs = 2.39155046e-10
+ mjswgs = 0.9274
+ pbswgs = 1.4338
* Stress Parameters
+ saref = 3.0e-6
+ sbref = 3.0e-6
+ wlod = {0+sky130_fd_pr__pfet_01v8__wlod_diff}
+ kvth0 = {0+sky130_fd_pr__pfet_01v8__kvth0_diff}
+ lkvth0 = {0+sky130_fd_pr__pfet_01v8__lkvth0_diff}
+ wkvth0 = {0+sky130_fd_pr__pfet_01v8__wkvth0_diff}
+ pkvth0 = 0.0
+ llodvth = 0.0
+ wlodvth = 1.0
+ stk2 = 0.0
+ lodk2 = 1.0
+ lodeta0 = 1.0
+ ku0 = {0+sky130_fd_pr__pfet_01v8__ku0_diff}
+ lku0 = {0+sky130_fd_pr__pfet_01v8__lku0_diff}
+ wku0 = {0+sky130_fd_pr__pfet_01v8__wku0_diff}
+ pku0 = 0.0
+ llodku0 = 0.0
+ wlodku0 = 1.0
+ kvsat = {0+sky130_fd_pr__pfet_01v8__kvsat_diff}
+ steta0 = 0.0
+ tku0 = 0.0
.model sky130_fd_pr__pfet_01v8__model.2 pmos
* DC IV MOS Parameters
+ lmin = 4e-06 lmax = 8e-06 wmin = 7e-06 wmax = 1.0e-4
+ level = 54.0
+ tnom = 30.0
+ version = 4.5
+ toxm = 4.23e-9
+ xj = 1.5e-7
+ lln = 1.0
+ lwn = 1.0
+ wln = 1.0
+ wwn = 1.0
+ lint = -1.3994e-8
+ ll = 0.0
+ lw = 0.0
+ lwl = 0.0
+ wint = 7.3039e-9
+ wl = 0.0
+ ww = 0.0
+ wwl = 0.0
+ xl = 0.0
+ xw = 0.0
+ mobmod = 0.0
+ binunit = 2.0
+ dwg = -5.722e-9
+ dwb = -1.7864e-8
* BSIM4 - Model Selectors
+ igcmod = 0.0
+ igbmod = 0.0
+ rgatemod = 0.0
+ rbodymod = 1.0
+ trnqsmod = 0.0
+ acnqsmod = 0.0
+ fnoimod = 1.0
+ tnoimod = 1.0
+ permod = 1.0
+ geomod = 0.0
+ rdsmod = 0.0
+ tempmod = 0.0
+ lintnoi = -2.0e-7
+ vfbsdoff = 0.0
+ lambda = 0.0
+ vtl = 0.0
+ lc = 5.0e-9
+ xn = 3.0
+ rnoia = 0.69
+ rnoib = 0.34
+ tnoia = 25000000.0
+ tnoib = 0.0
* BSIM4 - Process Parameters
+ epsrox = 3.9
+ toxe = {4.23e-09+sky130_fd_pr__pfet_01v8__toxe_slope_spectre*(4.23e-09*(sky130_fd_pr__pfet_01v8__toxe_slope/sqrt(l*w*mult)))}
+ dtox = 0.0
+ ndep = 1.7000000000000000e+17
+ nsd = 1.0e+20
+ rshg = 0.1
+ rsh = 1.0
* Threshold Voltage Parameters
+ vth0 = {-1.06315259668969+sky130_fd_pr__pfet_01v8__vth0_slope_spectre*(sky130_fd_pr__pfet_01v8__vth0_slope/sqrt(l*w*mult))} lvth0 = 2.88343387641138e-8
+ k1 = 0.43813350754211 lk1 = -2.92859199323285e-8
+ k2 = 0.018505134186116 lk2 = 1.0213301175319e-8
+ k3 = -15.845
+ dvt0 = 4.4955
+ dvt1 = 0.294
+ dvt2 = 0.015
+ dvt0w = -4.9772
+ dvt1w = 1147200.0
+ dvt2w = -0.00896
+ w0 = 0.0
+ k3b = 2.0
* NEW BSIM4 Parameters for Level 54
+ phin = 0.0
+ lpe0 = 0.0
+ lpeb = 0.0
+ vbm = -3.0
+ dvtp0 = 0.0
+ dvtp1 = 0.0
* Mobility Parameters
+ vsat = 267935.304375 lvsat = -0.863994582048848
+ ua = -5.7735106104059e-10 lua = 9.22925681976438e-17
+ ub = 9.2801494195413e-19 lub = 4.02163507580296e-26
+ uc = -7.3225399476844e-11 luc = 5.3590315902878e-17
+ rdsw = 547.88
+ prwb = -0.32348
+ prwg = 0.1376
+ wr = 1.0
+ u0 = 0.010287384564 lu0 = 1.51982204842276e-9
+ a0 = 1.328364188802 la0 = -7.3619209926419e-7
+ keta = 0.0214568259084065 lketa = -1.31079514192891e-07 wketa = -1.32348898008484e-23 pketa = 1.0097419586829e-28
+ a1 = 0.0
+ a2 = 1.2003959015 la2 = -1.61278988649118e-6
+ ags = 0.15348247893312 lags = 5.8263380662106e-7
+ b0 = 0.0
+ b1 = 0.0
* BSIM4 - Mobility Parameters
+ eu = 1.67
+ rdswmin = 0.0
+ rdw = 0.0
+ rdwmin = 0.0
+ rsw = 0.0
+ rswmin = 0.0
* Subthreshold Current Parameters
+ voff = {-0.26700524634887+sky130_fd_pr__pfet_01v8__voff_slope_spectre*(sky130_fd_pr__pfet_01v8__voff_slope/sqrt(l*w*mult))} lvoff = 7.98206497751723e-8
+ nfactor = {1.1833079277709+sky130_fd_pr__pfet_01v8__nfactor_slope_spectre*(sky130_fd_pr__pfet_01v8__nfactor_slope/sqrt(l*w*mult))} lnfactor = 1.23922328590075e-6
+ up = 0.0
+ ud = 0.0
+ lp = 1.0
+ tvfbsdoff = 0.0
+ tvoff = 0.0
+ cit = 1.0e-5
+ cdsc = 0.00013
+ cdscb = 0.00078
+ cdscd = 0.0
+ eta0 = 0.08
+ etab = -0.07
+ dsub = 0.56
* BSIM4 - Sub-threshold parameters
+ voffl = 0.0
+ minv = 0.0
* Rout Parameters
+ pclm = -0.433600672985592 lpclm = 3.49316602446345e-06 wpclm = 1.95214624562515e-22 ppclm = -3.78653234506086e-28
+ pdiblc1 = 0.39
+ pdiblc2 = 0.00578918120501261 lpdiblc2 = -2.26865707034236e-8
+ pdiblcb = -0.025
+ drout = 0.56
+ pscbe1 = 800000000.0
+ pscbe2 = 1.01417218694784e-08 lpscbe2 = -6.14644492624777e-15
+ pvag = 0.0
+ delta = 0.01
+ alpha0 = 1.0e-10
+ alpha1 = 1.0e-10
+ beta0 = 3.2444736759574 lbeta0 = 1.12546525230909e-5
* BSIM4 - Rout Parameters
+ fprout = 0.0
+ pdits = 0.0
+ pditsl = 0.0
+ pditsd = 0.0
* BSIM4 - Gate Induced Drain Leakage Model Parameters
+ agidl = 6.3172955084477e-10 lagidl = -2.4738208963872e-15
+ bgidl = 1363431030.754 lbgidl = -1463.89583070474
+ cgidl = 300.0
+ egidl = 0.1
* BSIM4 - Gate Leakage Current Parameters
+ aigbacc = 0.43
+ bigbacc = 0.054
+ cigbacc = 0.075
+ nigbacc = 1.0
+ aigbinv = 0.35
+ bigbinv = 0.03
+ cigbinv = 0.006
+ eigbinv = 1.1
+ nigbinv = 3.0
+ aigc = 0.43
+ bigc = 0.054
+ cigc = 0.075
+ nigc = 1.0
+ aigsd = 0.43
+ bigsd = 0.054
+ cigsd = 0.075
+ dlcig = 0.0
+ poxedge = 1.0
+ pigcd = 1.0
+ ntox = 1.0
+ toxref = 4.23e-9
* Temperature Effects Parameters
+ kt1 = -0.43157364924622 lkt1 = -1.35884540735137e-7
+ kt2 = 0.00980381507592701 lkt2 = -1.39481595736561e-7
+ at = 87860.10766631 lat = 0.0244042191761553
+ ute = -0.47442366324068 lute = 1.08284442989222e-6
+ ua1 = 1.2238699414329e-09 lua1 = 3.10305867181598e-15
+ ub1 = -2.9939625202016e-19 lub1 = -2.09934895073718e-24
+ uc1 = -8.830298756836e-11 luc1 = -1.62783612477057e-16
+ kt1l = 0.0
+ prt = 0.0
* BSIM4 - High Speed RF Model Parameters
+ xrcrg1 = 12.0
+ xrcrg2 = 1.0
+ rbpb = 50.0
+ rbpd = 50.0
+ rbps = 50.0
+ rbdb = 50.0
+ rbsb = 50.0
+ gbmin = 1.0e-12
* BSIM4 - Flicker and Thermal Noise Parameters
+ noia = 1.5e+42
+ noib = 0.0
+ noic = 0.0
+ em = 41000000.0
+ af = 1.0
+ ef = 1.0
+ kf = 0.0
+ ntnoi = 1.0
* BSIM4 - Layout Dependent Parasitic Model Parameters
+ dmcg = 0.0
+ dmcgt = 0.0
+ dmdg = 0.0
+ xgw = 0.0
+ xgl = 0.0
+ ngcon = 1.0
* Diode DC IV Parameters
* BSIM4 - Diode DC IV parameters
+ diomod = 1.0
+ njs = 1.3632
+ jss = 2.1483e-5
+ jsws = 8.04e-10
+ xtis = 5.2
+ bvs = 12.69
+ xjbvs = 1.0
+ ijthsrev = 0.1
+ ijthsfwd = 0.1
* Diode and FET Capacitance Parameters
+ tpb = 0.0020386
+ tpbsw = 0.001246
+ tpbswg = 0.0
+ tcj = 0.0012407
+ tcjsw = 0.00037357
+ tcjswg = 2.0e-12
+ cgdo = 5.248925e-11
+ cgso = 5.248925e-11
+ cgbo = 0.0
+ capmod = 2.0
+ xpart = 0.0
+ cgsl = 9.54827175e-12
+ cgdl = 9.54827175e-12
+ cf = 1.2e-11
+ clc = 1.0e-7
+ cle = 0.6
+ dlc = -3.0e-9
+ dwc = 0.0
+ vfbcv = -0.14469
+ acde = 0.8
+ moin = 18.13
+ noff = 3.9
+ voffcv = -0.10701
+ ngate = 1.0e+23
+ lwc = 0.0
+ llc = 0.0
+ lwlc = 0.0
+ wlc = 0.0
+ wwc = 0.0
+ wwlc = 0.0
* BSIM4 - FET and Diode capacitance parameters
+ ckappas = 0.6
+ cjs = 0.0007380194454
+ mjs = 0.34629
+ pbs = 0.6587
+ cjsws = 9.888892e-11
+ mjsws = 0.29781
+ pbsws = 0.7418
+ cjswgs = 2.39155046e-10
+ mjswgs = 0.9274
+ pbswgs = 1.4338
* Stress Parameters
+ saref = 3.0e-6
+ sbref = 3.0e-6
+ wlod = {0+sky130_fd_pr__pfet_01v8__wlod_diff}
+ kvth0 = {0+sky130_fd_pr__pfet_01v8__kvth0_diff}
+ lkvth0 = {0+sky130_fd_pr__pfet_01v8__lkvth0_diff}
+ wkvth0 = {0+sky130_fd_pr__pfet_01v8__wkvth0_diff}
+ pkvth0 = 0.0
+ llodvth = 0.0
+ wlodvth = 1.0
+ stk2 = 0.0
+ lodk2 = 1.0
+ lodeta0 = 1.0
+ ku0 = {0+sky130_fd_pr__pfet_01v8__ku0_diff}
+ lku0 = {0+sky130_fd_pr__pfet_01v8__lku0_diff}
+ wku0 = {0+sky130_fd_pr__pfet_01v8__wku0_diff}
+ pku0 = 0.0
+ llodku0 = 0.0
+ wlodku0 = 1.0
+ kvsat = {0+sky130_fd_pr__pfet_01v8__kvsat_diff}
+ steta0 = 0.0
+ tku0 = 0.0
.model sky130_fd_pr__pfet_01v8__model.3 pmos
* DC IV MOS Parameters
+ lmin = 2e-06 lmax = 4e-06 wmin = 7e-06 wmax = 1.0e-4
+ level = 54.0
+ tnom = 30.0
+ version = 4.5
+ toxm = 4.23e-9
+ xj = 1.5e-7
+ lln = 1.0
+ lwn = 1.0
+ wln = 1.0
+ wwn = 1.0
+ lint = -1.3994e-8
+ ll = 0.0
+ lw = 0.0
+ lwl = 0.0
+ wint = 7.3039e-9
+ wl = 0.0
+ ww = 0.0
+ wwl = 0.0
+ xl = 0.0
+ xw = 0.0
+ mobmod = 0.0
+ binunit = 2.0
+ dwg = -5.722e-9
+ dwb = -1.7864e-8
* BSIM4 - Model Selectors
+ igcmod = 0.0
+ igbmod = 0.0
+ rgatemod = 0.0
+ rbodymod = 1.0
+ trnqsmod = 0.0
+ acnqsmod = 0.0
+ fnoimod = 1.0
+ tnoimod = 1.0
+ permod = 1.0
+ geomod = 0.0
+ rdsmod = 0.0
+ tempmod = 0.0
+ lintnoi = -2.0e-7
+ vfbsdoff = 0.0
+ lambda = 0.0
+ vtl = 0.0
+ lc = 5.0e-9
+ xn = 3.0
+ rnoia = 0.69
+ rnoib = 0.34
+ tnoia = 25000000.0
+ tnoib = 0.0
* BSIM4 - Process Parameters
+ epsrox = 3.9
+ toxe = {4.23e-09+sky130_fd_pr__pfet_01v8__toxe_slope_spectre*(4.23e-09*(sky130_fd_pr__pfet_01v8__toxe_slope/sqrt(l*w*mult)))}
+ dtox = 0.0
+ ndep = 1.7000000000000000e+17
+ nsd = 1.0e+20
+ rshg = 0.1
+ rsh = 1.0
* Threshold Voltage Parameters
+ vth0 = {-1.064659692724+sky130_fd_pr__pfet_01v8__vth0_slope_spectre*(sky130_fd_pr__pfet_01v8__vth0_slope/sqrt(l*w*mult))} lvth0 = 3.49049035051586e-8
+ k1 = 0.4242721924985 lk1 = 2.65472907275519e-8
+ k2 = 0.023299152360404 lk2 = -9.09694650249498e-9
+ k3 = -15.845
+ dvt0 = 4.4955
+ dvt1 = 0.294
+ dvt2 = 0.015
+ dvt0w = -4.9772
+ dvt1w = 1147200.0
+ dvt2w = -0.00896
+ w0 = 0.0
+ k3b = 2.0
* NEW BSIM4 Parameters for Level 54
+ phin = 0.0
+ lpe0 = 0.0
+ lpeb = 0.0
+ vbm = -3.0
+ dvtp0 = 0.0
+ dvtp1 = 0.0
* Mobility Parameters
+ vsat = 53437.5
+ ua = -2.310026979311e-10 lua = -1.30279448222702e-15
+ ub = 7.5275815268718e-19 lub = 7.46148594843831e-25
+ uc = -8.0891709259708e-11 luc = 8.44701197125367e-17
+ rdsw = 547.88
+ prwb = -0.32348
+ prwg = 0.1376
+ wr = 1.0
+ u0 = 0.0121662223152 lu0 = -6.04811386735782e-9
+ a0 = 1.171560344358 la0 = -1.04588095489892e-7
+ keta = -0.005464761922144 lketa = -2.2639681470487e-8
+ a1 = 0.0
+ a2 = 0.8
+ ags = 0.0945043548257399 lags = 8.20196982788097e-7
+ b0 = 0.0
+ b1 = 0.0
* BSIM4 - Mobility Parameters
+ eu = 1.67
+ rdswmin = 0.0
+ rdw = 0.0
+ rdwmin = 0.0
+ rsw = 0.0
+ rswmin = 0.0
* Subthreshold Current Parameters
+ voff = {-0.25410325634546+sky130_fd_pr__pfet_01v8__voff_slope_spectre*(sky130_fd_pr__pfet_01v8__voff_slope/sqrt(l*w*mult))} lvoff = 2.78515888653169e-8
+ nfactor = {1.514261668126+sky130_fd_pr__pfet_01v8__nfactor_slope_spectre*(sky130_fd_pr__pfet_01v8__nfactor_slope/sqrt(l*w*mult))} lnfactor = -9.38544088047108e-8
+ up = 0.0
+ ud = 0.0
+ lp = 1.0
+ tvfbsdoff = 0.0
+ tvoff = 0.0
+ cit = 1.0e-5
+ cdsc = 0.00013
+ cdscb = 0.00078
+ cdscd = 0.0
+ eta0 = 0.160612523 leta0 = -3.24706275293724e-7
+ etab = -0.140472582563983 letab = 2.83862716896731e-7
+ dsub = 0.8641982 ldsub = -1.2253066992216e-6
* BSIM4 - Sub-threshold parameters
+ voffl = 0.0
+ minv = 0.0
* Rout Parameters
+ pclm = 0.46461195637154 lpclm = -1.24823668035527e-7
+ pdiblc1 = 0.39
+ pdiblc2 = -2.158869170794e-05 lpdiblc2 = 7.19140711328042e-10
+ pdiblcb = -0.025
+ drout = 0.56
+ pscbe1 = 800446289.17922 lpscbe1 = -1.79764745842795
+ pscbe2 = 8.2864339326498e-09 lpscbe2 = 1.3266326198426e-15
+ pvag = 0.0
+ delta = 0.01
+ alpha0 = 1.0e-10
+ alpha1 = 1.0e-10
+ beta0 = 3.8949963916396 lbeta0 = 8.6343548305956e-6
* BSIM4 - Rout Parameters
+ fprout = 0.0
+ pdits = 0.0
+ pditsl = 0.0
+ pditsd = 0.0
* BSIM4 - Gate Induced Drain Leakage Model Parameters
+ agidl = -1.249374783754e-11 lagidl = 1.21102820025557e-16 pagidl = 9.4039548065783e-38
+ bgidl = 917252411.2336 lbgidl = 333.306294579995
+ cgidl = 300.0
+ egidl = 0.1
* BSIM4 - Gate Leakage Current Parameters
+ aigbacc = 0.43
+ bigbacc = 0.054
+ cigbacc = 0.075
+ nigbacc = 1.0
+ aigbinv = 0.35
+ bigbinv = 0.03
+ cigbinv = 0.006
+ eigbinv = 1.1
+ nigbinv = 3.0
+ aigc = 0.43
+ bigc = 0.054
+ cigc = 0.075
+ nigc = 1.0
+ aigsd = 0.43
+ bigsd = 0.054
+ cigsd = 0.075
+ dlcig = 0.0
+ poxedge = 1.0
+ pigcd = 1.0
+ ntox = 1.0
+ toxref = 4.23e-9
* Temperature Effects Parameters
+ kt1 = -0.46636744099546 lkt1 = 4.26443490530082e-9
+ kt2 = -0.005478318739886 lkt2 = -7.79253441120721e-8
+ at = 107038.244165516 lat = -0.0528450845050085
+ ute = -0.17571011240618 lute = -1.20370168306536e-7
+ ua1 = 2.345249984031e-09 lua1 = -1.41384668320866e-15
+ ub1 = -1.03151249939108e-18 lub1 = 8.49606508277918e-25 wub1 = 1.46936793852786e-39
+ uc1 = -2.42518521215026e-10 luc1 = 4.5839470646531e-16
+ kt1l = 0.0
+ prt = 0.0
* BSIM4 - High Speed RF Model Parameters
+ xrcrg1 = 12.0
+ xrcrg2 = 1.0
+ rbpb = 50.0
+ rbpd = 50.0
+ rbps = 50.0
+ rbdb = 50.0
+ rbsb = 50.0
+ gbmin = 1.0e-12
* BSIM4 - Flicker and Thermal Noise Parameters
+ noia = 1.5e+42
+ noib = 0.0
+ noic = 0.0
+ em = 41000000.0
+ af = 1.0
+ ef = 1.0
+ kf = 0.0
+ ntnoi = 1.0
* BSIM4 - Layout Dependent Parasitic Model Parameters
+ dmcg = 0.0
+ dmcgt = 0.0
+ dmdg = 0.0
+ xgw = 0.0
+ xgl = 0.0
+ ngcon = 1.0
* Diode DC IV Parameters
* BSIM4 - Diode DC IV parameters
+ diomod = 1.0
+ njs = 1.3632
+ jss = 2.1483e-5
+ jsws = 8.04e-10
+ xtis = 5.2
+ bvs = 12.69
+ xjbvs = 1.0
+ ijthsrev = 0.1
+ ijthsfwd = 0.1
* Diode and FET Capacitance Parameters
+ tpb = 0.0020386
+ tpbsw = 0.001246
+ tpbswg = 0.0
+ tcj = 0.0012407
+ tcjsw = 0.00037357
+ tcjswg = 2.0e-12
+ cgdo = 5.248925e-11
+ cgso = 5.248925e-11
+ cgbo = 0.0
+ capmod = 2.0
+ xpart = 0.0
+ cgsl = 9.54827175e-12
+ cgdl = 9.54827175e-12
+ cf = 1.2e-11
+ clc = 1.0e-7
+ cle = 0.6
+ dlc = -3.0e-9
+ dwc = 0.0
+ vfbcv = -0.14469
+ acde = 0.8
+ moin = 18.13
+ noff = 3.9
+ voffcv = -0.10701
+ ngate = 1.0e+23
+ lwc = 0.0
+ llc = 0.0
+ lwlc = 0.0
+ wlc = 0.0
+ wwc = 0.0
+ wwlc = 0.0
* BSIM4 - FET and Diode capacitance parameters
+ ckappas = 0.6
+ cjs = 0.0007380194454
+ mjs = 0.34629
+ pbs = 0.6587
+ cjsws = 9.888892e-11
+ mjsws = 0.29781
+ pbsws = 0.7418
+ cjswgs = 2.39155046e-10
+ mjswgs = 0.9274
+ pbswgs = 1.4338
* Stress Parameters
+ saref = 3.0e-6
+ sbref = 3.0e-6
+ wlod = {0+sky130_fd_pr__pfet_01v8__wlod_diff}
+ kvth0 = {0+sky130_fd_pr__pfet_01v8__kvth0_diff}
+ lkvth0 = {0+sky130_fd_pr__pfet_01v8__lkvth0_diff}
+ wkvth0 = {0+sky130_fd_pr__pfet_01v8__wkvth0_diff}
+ pkvth0 = 0.0
+ llodvth = 0.0
+ wlodvth = 1.0
+ stk2 = 0.0
+ lodk2 = 1.0
+ lodeta0 = 1.0
+ ku0 = {0+sky130_fd_pr__pfet_01v8__ku0_diff}
+ lku0 = {0+sky130_fd_pr__pfet_01v8__lku0_diff}
+ wku0 = {0+sky130_fd_pr__pfet_01v8__wku0_diff}
+ pku0 = 0.0
+ llodku0 = 0.0
+ wlodku0 = 1.0
+ kvsat = {0+sky130_fd_pr__pfet_01v8__kvsat_diff}
+ steta0 = 0.0
+ tku0 = 0.0
.model sky130_fd_pr__pfet_01v8__model.4 pmos
* DC IV MOS Parameters
+ lmin = 1e-06 lmax = 2e-06 wmin = 7e-06 wmax = 1.0e-4
+ level = 54.0
+ tnom = 30.0
+ version = 4.5
+ toxm = 4.23e-9
+ xj = 1.5e-7
+ lln = 1.0
+ lwn = 1.0
+ wln = 1.0
+ wwn = 1.0
+ lint = -1.3994e-8
+ ll = 0.0
+ lw = 0.0
+ lwl = 0.0
+ wint = 7.3039e-9
+ wl = 0.0
+ ww = 0.0
+ wwl = 0.0
+ xl = 0.0
+ xw = 0.0
+ mobmod = 0.0
+ binunit = 2.0
+ dwg = -5.722e-9
+ dwb = -1.7864e-8
* BSIM4 - Model Selectors
+ igcmod = 0.0
+ igbmod = 0.0
+ rgatemod = 0.0
+ rbodymod = 1.0
+ trnqsmod = 0.0
+ acnqsmod = 0.0
+ fnoimod = 1.0
+ tnoimod = 1.0
+ permod = 1.0
+ geomod = 0.0
+ rdsmod = 0.0
+ tempmod = 0.0
+ lintnoi = -2.0e-7
+ vfbsdoff = 0.0
+ lambda = 0.0
+ vtl = 0.0
+ lc = 5.0e-9
+ xn = 3.0
+ rnoia = 0.69
+ rnoib = 0.34
+ tnoia = 25000000.0
+ tnoib = 0.0
* BSIM4 - Process Parameters
+ epsrox = 3.9
+ toxe = {4.23e-09+sky130_fd_pr__pfet_01v8__toxe_slope_spectre*(4.23e-09*(sky130_fd_pr__pfet_01v8__toxe_slope/sqrt(l*w*mult)))}
+ dtox = 0.0
+ ndep = 1.7000000000000000e+17
+ nsd = 1.0e+20
+ rshg = 0.1
+ rsh = 1.0
* Threshold Voltage Parameters
+ vth0 = {-1.0639605684452+sky130_fd_pr__pfet_01v8__vth0_slope_spectre*(sky130_fd_pr__pfet_01v8__vth0_slope/sqrt(l*w*mult))} lvth0 = 3.34870878572444e-8
+ k1 = 0.354542539783 lk1 = 1.67958189678753e-7
+ k2 = 0.051575195178736 lk2 = -6.64404220255585e-08 pk2 = 5.04870979341448e-29
+ k3 = -15.845
+ dvt0 = 4.4955
+ dvt1 = 0.294
+ dvt2 = 0.015
+ dvt0w = -4.9772
+ dvt1w = 1147200.0
+ dvt2w = -0.00896
+ w0 = 0.0
+ k3b = 2.0
* NEW BSIM4 Parameters for Level 54
+ phin = 0.0
+ lpe0 = 0.0
+ lpeb = 0.0
+ vbm = -3.0
+ dvtp0 = 0.0
+ dvtp1 = 0.0
* Mobility Parameters
+ vsat = 35126.46375 lvsat = 0.037134561782565
+ ua = -7.4823552751872e-10 lua = -2.53852510617286e-16
+ ub = 1.05727653665008e-18 lub = 1.28588966387678e-25
+ uc = -4.298706539394e-11 luc = 7.59995680848559e-18
+ rdsw = 547.88
+ prwb = -0.32348
+ prwg = 0.1376
+ wr = 1.0
+ u0 = 0.0097856841752 lu0 = -1.2204110858955e-9
+ a0 = 1.293571997704 la0 = -3.52026264335739e-7
+ keta = -0.006680825932652 lketa = -2.01735182499449e-8
+ a1 = 0.0
+ a2 = 0.6972012 la2 = 2.084747328144e-7
+ ags = 0.3705824317914 lags = 2.60313955638662e-7
+ b0 = 0.0
+ b1 = 0.0
* BSIM4 - Mobility Parameters
+ eu = 1.67
+ rdswmin = 0.0
+ rdw = 0.0
+ rdwmin = 0.0
+ rsw = 0.0
+ rswmin = 0.0
* Subthreshold Current Parameters
+ voff = {-0.2479929006116+sky130_fd_pr__pfet_01v8__voff_slope_spectre*(sky130_fd_pr__pfet_01v8__voff_slope/sqrt(l*w*mult))} lvoff = 1.54598607613175e-8
+ nfactor = {1.2665691307516+sky130_fd_pr__pfet_01v8__nfactor_slope_spectre*(sky130_fd_pr__pfet_01v8__nfactor_slope/sqrt(l*w*mult))} lnfactor = 4.08463084680124e-7
+ up = 0.0
+ ud = 0.0
+ lp = 1.0
+ tvfbsdoff = 0.0
+ tvoff = 0.0
+ cit = 1.0e-5
+ cdsc = 0.00013
+ cdscb = 0.00078
+ cdscd = 0.0
+ eta0 = -0.502700126 leta0 = 1.02048381712649e-06 weta0 = -1.96868985787621e-22 peta0 = 7.13130258319795e-28
+ etab = 7.64532070406077 letab = -1.55056326388588e-05 wetab = 2.59238403974119e-21 petab = 4.23144989560551e-27
+ dsub = 0.26
* BSIM4 - Sub-threshold parameters
+ voffl = 0.0
+ minv = 0.0
* Rout Parameters
+ pclm = 0.18260436541916 lpclm = 4.47084342324809e-7
+ pdiblc1 = 0.40860196713388 lpdiblc1 = -3.77245661239032e-8
+ pdiblc2 = 0.00023332426360864 lpdiblc2 = 2.02180296901481e-10
+ pdiblcb = -0.0499342085713219 lpdiblcb = 5.0566275772138e-8
+ drout = 0.40005836936472 ldrout = 3.2435970762878e-7
+ pscbe1 = 799107421.64156 lpscbe1 = 0.917559841535876
+ pscbe2 = 8.9458121167096e-09 lpscbe2 = -1.05784248924693e-17
+ pvag = 0.0
+ delta = 0.01
+ alpha0 = -4.5896723869156e-05 lalpha0 = 9.3078208044762e-11 walpha0 = 8.66662311998434e-27 palpha0 = 3.01759744206368e-32
+ alpha1 = 2.027988e-10 lalpha1 = -2.084747328144e-16
+ beta0 = -14.198337403152 lbeta0 = 4.53274186464274e-05 pbeta0 = -2.58493941422821e-26
* BSIM4 - Rout Parameters
+ fprout = 0.0
+ pdits = 0.0
+ pditsl = 0.0
+ pditsd = 0.0
* BSIM4 - Gate Induced Drain Leakage Model Parameters
+ agidl = -7.724678704e-11 lagidl = 2.52421206491676e-16
+ bgidl = 797814915.1704 lbgidl = 575.524103346211
+ cgidl = 300.0
+ egidl = 0.1
* BSIM4 - Gate Leakage Current Parameters
+ aigbacc = 0.43
+ bigbacc = 0.054
+ cigbacc = 0.075
+ nigbacc = 1.0
+ aigbinv = 0.35
+ bigbinv = 0.03
+ cigbinv = 0.006
+ eigbinv = 1.1
+ nigbinv = 3.0
+ aigc = 0.43
+ bigc = 0.054
+ cigc = 0.075
+ nigc = 1.0
+ aigsd = 0.43
+ bigsd = 0.054
+ cigsd = 0.075
+ dlcig = 0.0
+ poxedge = 1.0