* Copyright 2020 The SkyWater PDK Authors
*
* Licensed under the Apache License, Version 2.0 (the "License");
* you may not use this file except in compliance with the License.
* You may obtain a copy of the License at
*
*     https://www.apache.org/licenses/LICENSE-2.0
*
* Unless required by applicable law or agreed to in writing, software
* distributed under the License is distributed on an "AS IS" BASIS,
* WITHOUT WARRANTIES OR CONDITIONS OF ANY KIND, either express or implied.
* See the License for the specific language governing permissions and
* limitations under the License.

* SKY130 Spice File.
.param sky130_fd_pr__pfet_01v8__toxe_slope_spectre = 0.0
.param sky130_fd_pr__pfet_01v8__vth0_slope_spectre = 0.0
.param sky130_fd_pr__pfet_01v8__voff_slope_spectre = 0.0
.param sky130_fd_pr__pfet_01v8__nfactor_slope_spectre = 0.0
* statistics {
*   process {
*   }
*   mismatch {
*     vary sky130_fd_pr__pfet_01v8__toxe_slope_spectre dist=gauss std = 1.0
*     vary sky130_fd_pr__pfet_01v8__vth0_slope_spectre dist=gauss std = 1.0
*     vary sky130_fd_pr__pfet_01v8__voff_slope_spectre dist=gauss std = 1.0
*     vary sky130_fd_pr__pfet_01v8__nfactor_slope_spectre dist=gauss std = 1.0
*   }
* }
.subckt  sky130_fd_pr__pfet_01v8 d g s b
+ 
.param  l = 1 w = 1 ad = 0 as = 0 pd = 0 ps = 0 nrd = 0 nrs = 0 sa = 0 sb = 0 sd = 0 mult = 1 nf = 1.0
msky130_fd_pr__pfet_01v8 d g s b sky130_fd_pr__pfet_01v8__model l = {l} w = {w} ad = {ad} as = {as} pd = {pd} ps = {ps} nrd = {nrd} nrs = {nrs} sa = {sa} sb = {sb} sd = {sd} nf = {nf}
.model sky130_fd_pr__pfet_01v8__model.0 pmos
* DC IV MOS Parameters
+ lmin = 2.0e-05 lmax = 1.0e-04 wmin = 7e-06 wmax = 1.0e-4
+ level = 54.0
+ tnom = 30.0
+ version = 4.5
+ toxm = 4.23e-9
+ xj = 1.5e-7
+ lln = 1.0
+ lwn = 1.0
+ wln = 1.0
+ wwn = 1.0
+ lint = -3.1319e-8
+ ll = 0.0
+ lw = 0.0
+ lwl = 0.0
+ wint = 3.94789e-8
+ wl = 0.0
+ ww = 0.0
+ wwl = 0.0
+ xl = 0.0
+ xw = 0.0
+ mobmod = 0.0
+ binunit = 2.0
+ dwg = -5.722e-9
+ dwb = -1.7864e-8
* BSIM4 - Model Selectors
+ igcmod = 0.0
+ igbmod = 0.0
+ rgatemod = 0.0
+ rbodymod = 1.0
+ trnqsmod = 0.0
+ acnqsmod = 0.0
+ fnoimod = 1.0
+ tnoimod = 1.0
+ permod = 1.0
+ geomod = 0.0
+ rdsmod = 0.0
+ tempmod = 0.0
+ lintnoi = -2.0e-7
+ vfbsdoff = 0.0
+ lambda = 0.0
+ vtl = 0.0
+ lc = 5.0e-9
+ xn = 3.0
+ rnoia = 0.69
+ rnoib = 0.34
+ tnoia = 25.0e+6
+ tnoib = .0e-6
* BSIM4 - Process Parameters
+ epsrox = 3.9
+ toxe = {4.44996e-09+sky130_fd_pr__pfet_01v8__toxe_slope_spectre*(4.44996e-09*(sky130_fd_pr__pfet_01v8__toxe_slope/sqrt(l*w*mult)))}
+ dtox = 0.0
+ ndep = 1.7000000000000000e+17
+ nsd = 1.0e+20
+ rshg = 0.1
+ rsh = 1.0
* Threshold Voltage Parameters
+ vth0 = {-1.069382+sky130_fd_pr__pfet_01v8__vth0_slope_spectre*(sky130_fd_pr__pfet_01v8__vth0_slope/sqrt(l*w*mult))}
+ k1 = 0.43448553
+ k2 = 0.018008346
+ k3 = -15.845
+ dvt0 = 4.4955
+ dvt1 = 0.294
+ dvt2 = 0.015
+ dvt0w = -4.9772
+ dvt1w = 1147200.0
+ dvt2w = -0.00896
+ w0 = 0.0
+ k3b = 2.0
* NEW BSIM4 Parameters for Level 54
+ phin = 0.0
+ lpe0 = 0.0
+ lpeb = 0.0
+ vbm = -3.0
+ dvtp0 = 0.0
+ dvtp1 = 0.0
* Mobility Parameters
+ vsat = 160312.5
+ ua = -5.6113816e-10
+ ub = 7.7273446e-19
+ uc = -6.6549964e-11
+ rdsw = 547.88
+ prwb = -0.32348
+ prwg = 0.1376
+ wr = 1.0
+ u0 = 0.0097753
+ a0 = 1.33379
+ keta = 0.0051290095
+ a1 = 0.0
+ a2 = 0.9995
+ ags = 0.1474578
+ b0 = 0.0
+ b1 = 0.0
* BSIM4 - Mobility Parameters
+ eu = 1.67
+ rdswmin = 0.0
+ rdw = 0.0
+ rdwmin = 0.0
+ rsw = 0.0
+ rswmin = 0.0
* Subthreshold Current Parameters
+ voff = {-0.22144045+sky130_fd_pr__pfet_01v8__voff_slope_spectre*(sky130_fd_pr__pfet_01v8__voff_slope/sqrt(l*w*mult))}
+ nfactor = {1.2879038+sky130_fd_pr__pfet_01v8__nfactor_slope_spectre*(sky130_fd_pr__pfet_01v8__nfactor_slope/sqrt(l*w*mult))}
+ up = 0.0
+ ud = 0.0
+ lp = 1.0
+ tvfbsdoff = 0.0
+ tvoff = 0.0
+ cit = 1.0e-5
+ cdsc = 0.00013
+ cdscb = 0.00078
+ cdscd = 0.0
+ eta0 = 0.08
+ etab = -0.07
+ dsub = 0.56
* BSIM4 - Sub-threshold parameters
+ voffl = 0.0
+ minv = 0.0
* Rout Parameters
+ pclm = 0.0015228006
+ pdiblc1 = 0.39
+ pdiblc2 = 0.0029632464
+ pdiblcb = -0.025
+ drout = 0.56
+ pscbe1 = 800000000.0
+ pscbe2 = 9.3760948e-9
+ pvag = 0.0
+ delta = 0.01
+ alpha0 = 1.0e-10
+ alpha1 = 1.0e-10
+ beta0 = 4.6464006
* BSIM4 - Rout Parameters
+ fprout = 0.0
+ pdits = 0.0
+ pditsl = 0.0
+ pditsd = 0.0
* BSIM4 - Gate Induced Drain Leakage Model Parameters
+ agidl = 1.0e-10
+ bgidl = 1181082000.0
+ cgidl = 300.0
+ egidl = 0.1
* BSIM4 - Gate Leakage Current Parameters
+ aigbacc = 0.43
+ bigbacc = 0.054
+ cigbacc = 0.075
+ nigbacc = 1.0
+ aigbinv = 0.35
+ bigbinv = 0.03
+ cigbinv = 0.006
+ eigbinv = 1.1
+ nigbinv = 3.0
+ aigc = 0.43
+ bigc = 0.054
+ cigc = 0.075
+ nigc = 1.0
+ aigsd = 0.43
+ bigsd = 0.054
+ cigsd = 0.075
+ dlcig = 0.0
+ poxedge = 1.0
+ pigcd = 1.0
+ ntox = 1.0
+ toxref = 4.23e-9
* Temperature Effects Parameters
+ kt1 = -0.4485
+ kt2 = -0.0075706
+ at = 90900.0
+ ute = -0.33954
+ ua1 = 1.6104e-9
+ ub1 = -5.609e-19
+ uc1 = -1.0858e-10
+ kt1l = 0.0
+ prt = 0.0
* BSIM4 - High Speed RF Model Parameters
+ xrcrg1 = 12.0
+ xrcrg2 = 1.0
+ rbpb = 50.0
+ rbpd = 50.0
+ rbps = 50.0
+ rbdb = 50.0
+ rbsb = 50.0
+ gbmin = 1.0e-12
* BSIM4 - Flicker and Thermal Noise Parameters
+ noia = 1.5e+42
+ noib = 0.0
+ noic = 0.0
+ em = 41000000.0
+ af = 1.0
+ ef = 1.0
+ kf = 0.0
+ ntnoi = 1.0
* BSIM4 - Layout Dependent Parasitic Model Parameters
+ dmcg = 0.0
+ dmcgt = 0.0
+ dmdg = 0.0
+ xgw = 0.0
+ xgl = 0.0
+ ngcon = 1.0
* Diode DC IV Parameters
* BSIM4 - Diode DC IV parameters
+ diomod = 1.0
+ njs = 1.3632
+ jss = 2.1483e-5
+ jsws = 8.04e-10
+ xtis = 5.2
+ bvs = 12.69
+ xjbvs = 1.0
+ ijthsrev = 0.1
+ ijthsfwd = 0.1
* Diode and FET Capacitance Parameters
+ tpb = 0.0020386
+ tpbsw = 0.001246
+ tpbswg = 0.0
+ tcj = 0.0012407
+ tcjsw = 0.00037357
+ tcjswg = 2.0e-12
+ cgdo = 6.5637e-11
+ cgso = 6.5637e-11
+ cgbo = 0.0
+ capmod = 2.0
+ xpart = 0.0
+ cgsl = 1.1939967e-11
+ cgdl = 1.1939967e-11
+ cf = 1.2e-11
+ clc = 1.0e-7
+ cle = 0.6
+ dlc = -2.0325e-8
+ dwc = 3.2175e-8
+ vfbcv = -0.14469
+ acde = 0.8
+ moin = 18.13
+ noff = 3.9
+ voffcv = -0.10701
+ ngate = 1.0e+23
+ lwc = 0.0
+ llc = 0.0
+ lwlc = 0.0
+ wlc = 0.0
+ wwc = 0.0
+ wwlc = 0.0
* BSIM4 - FET and Diode capacitance parameters
+ ckappas = 0.6
+ cjs = 0.000808127811
+ mjs = 0.34629
+ pbs = 0.6587
+ cjsws = 1.082848e-10
+ mjsws = 0.29781
+ pbsws = 0.7418
+ cjswgs = 2.6187824e-10
+ mjswgs = 0.9274
+ pbswgs = 1.4338
* Stress Parameters
+ saref = 3.0e-6
+ sbref = 3.0e-6
+ wlod = {0+sky130_fd_pr__pfet_01v8__wlod_diff}
+ kvth0 = {0+sky130_fd_pr__pfet_01v8__kvth0_diff}
+ lkvth0 = {0+sky130_fd_pr__pfet_01v8__lkvth0_diff}
+ wkvth0 = {0+sky130_fd_pr__pfet_01v8__wkvth0_diff}
+ pkvth0 = 0.0
+ llodvth = 0.0
+ wlodvth = 1.0
+ stk2 = 0.0
+ lodk2 = 1.0
+ lodeta0 = 1.0
+ ku0 = {0+sky130_fd_pr__pfet_01v8__ku0_diff}
+ lku0 = {0+sky130_fd_pr__pfet_01v8__lku0_diff}
+ wku0 = {0+sky130_fd_pr__pfet_01v8__wku0_diff}
+ pku0 = 0.0
+ llodku0 = 0.0
+ wlodku0 = 1.0
+ kvsat = {0+sky130_fd_pr__pfet_01v8__kvsat_diff}
+ steta0 = 0.0
+ tku0 = 0.0
.model sky130_fd_pr__pfet_01v8__model.1 pmos
* DC IV MOS Parameters
+ lmin = 8e-06 lmax = 2.0e-05 wmin = 7e-06 wmax = 1.0e-4
+ level = 54.0
+ tnom = 30.0
+ version = 4.5
+ toxm = 4.23e-9
+ xj = 1.5e-7
+ lln = 1.0
+ lwn = 1.0
+ wln = 1.0
+ wwn = 1.0
+ lint = -3.1319e-8
+ ll = 0.0
+ lw = 0.0
+ lwl = 0.0
+ wint = 3.94789e-8
+ wl = 0.0
+ ww = 0.0
+ wwl = 0.0
+ xl = 0.0
+ xw = 0.0
+ mobmod = 0.0
+ binunit = 2.0
+ dwg = -5.722e-9
+ dwb = -1.7864e-8
* BSIM4 - Model Selectors
+ igcmod = 0.0
+ igbmod = 0.0
+ rgatemod = 0.0
+ rbodymod = 1.0
+ trnqsmod = 0.0
+ acnqsmod = 0.0
+ fnoimod = 1.0
+ tnoimod = 1.0
+ permod = 1.0
+ geomod = 0.0
+ rdsmod = 0.0
+ tempmod = 0.0
+ lintnoi = -2.0e-7
+ vfbsdoff = 0.0
+ lambda = 0.0
+ vtl = 0.0
+ lc = 5.0e-9
+ xn = 3.0
+ rnoia = 0.69
+ rnoib = 0.34
+ tnoia = 25.0e+6
+ tnoib = .0e-6
* BSIM4 - Process Parameters
+ epsrox = 3.9
+ toxe = {4.44996e-09+sky130_fd_pr__pfet_01v8__toxe_slope_spectre*(4.44996e-09*(sky130_fd_pr__pfet_01v8__toxe_slope/sqrt(l*w*mult)))}
+ dtox = 0.0
+ ndep = 1.7000000000000000e+17
+ nsd = 1.0e+20
+ rshg = 0.1
+ rsh = 1.0
* Threshold Voltage Parameters
+ vth0 = {-1.069382+sky130_fd_pr__pfet_01v8__vth0_slope_spectre*(sky130_fd_pr__pfet_01v8__vth0_slope/sqrt(l*w*mult))}
+ k1 = 0.43448553
+ k2 = 0.018008346
+ k3 = -15.845
+ dvt0 = 4.4955
+ dvt1 = 0.294
+ dvt2 = 0.015
+ dvt0w = -4.9772
+ dvt1w = 1147200.0
+ dvt2w = -0.00896
+ w0 = 0.0
+ k3b = 2.0
* NEW BSIM4 Parameters for Level 54
+ phin = 0.0
+ lpe0 = 0.0
+ lpeb = 0.0
+ vbm = -3.0
+ dvtp0 = 0.0
+ dvtp1 = 0.0
* Mobility Parameters
+ vsat = 160312.5
+ ua = -5.6113816e-10
+ ub = 7.7273446e-19
+ uc = -6.6549964e-11
+ rdsw = 547.88
+ prwb = -0.32348
+ prwg = 0.1376
+ wr = 1.0
+ u0 = 0.0097753
+ a0 = 1.33379
+ keta = 0.0051290095
+ a1 = 0.0
+ a2 = 0.9995
+ ags = 0.1474578
+ b0 = 0.0
+ b1 = 0.0
* BSIM4 - Mobility Parameters
+ eu = 1.67
+ rdswmin = 0.0
+ rdw = 0.0
+ rdwmin = 0.0
+ rsw = 0.0
+ rswmin = 0.0
* Subthreshold Current Parameters
+ voff = {-0.22144045+sky130_fd_pr__pfet_01v8__voff_slope_spectre*(sky130_fd_pr__pfet_01v8__voff_slope/sqrt(l*w*mult))}
+ nfactor = {1.2879038+sky130_fd_pr__pfet_01v8__nfactor_slope_spectre*(sky130_fd_pr__pfet_01v8__nfactor_slope/sqrt(l*w*mult))}
+ up = 0.0
+ ud = 0.0
+ lp = 1.0
+ tvfbsdoff = 0.0
+ tvoff = 0.0
+ cit = 1.0e-5
+ cdsc = 0.00013
+ cdscb = 0.00078
+ cdscd = 0.0
+ eta0 = 0.08
+ etab = -0.07
+ dsub = 0.56
* BSIM4 - Sub-threshold parameters
+ voffl = 0.0
+ minv = 0.0
* Rout Parameters
+ pclm = 0.0015228006
+ pdiblc1 = 0.39
+ pdiblc2 = 0.0029632464
+ pdiblcb = -0.025
+ drout = 0.56
+ pscbe1 = 800000000.0
+ pscbe2 = 9.3760948e-9
+ pvag = 0.0
+ delta = 0.01
+ alpha0 = 1.0e-10
+ alpha1 = 1.0e-10
+ beta0 = 4.6464006
* BSIM4 - Rout Parameters
+ fprout = 0.0
+ pdits = 0.0
+ pditsl = 0.0
+ pditsd = 0.0
* BSIM4 - Gate Induced Drain Leakage Model Parameters
+ agidl = 1.0e-10
+ bgidl = 1181082000.0
+ cgidl = 300.0
+ egidl = 0.1
* BSIM4 - Gate Leakage Current Parameters
+ aigbacc = 0.43
+ bigbacc = 0.054
+ cigbacc = 0.075
+ nigbacc = 1.0
+ aigbinv = 0.35
+ bigbinv = 0.03
+ cigbinv = 0.006
+ eigbinv = 1.1
+ nigbinv = 3.0
+ aigc = 0.43
+ bigc = 0.054
+ cigc = 0.075
+ nigc = 1.0
+ aigsd = 0.43
+ bigsd = 0.054
+ cigsd = 0.075
+ dlcig = 0.0
+ poxedge = 1.0
+ pigcd = 1.0
+ ntox = 1.0
+ toxref = 4.23e-9
* Temperature Effects Parameters
+ kt1 = -0.4485
+ kt2 = -0.0075706
+ at = 90900.0
+ ute = -0.33954
+ ua1 = 1.6104e-9
+ ub1 = -5.609e-19
+ uc1 = -1.0858e-10
+ kt1l = 0.0
+ prt = 0.0
* BSIM4 - High Speed RF Model Parameters
+ xrcrg1 = 12.0
+ xrcrg2 = 1.0
+ rbpb = 50.0
+ rbpd = 50.0
+ rbps = 50.0
+ rbdb = 50.0
+ rbsb = 50.0
+ gbmin = 1.0e-12
* BSIM4 - Flicker and Thermal Noise Parameters
+ noia = 1.5e+42
+ noib = 0.0
+ noic = 0.0
+ em = 41000000.0
+ af = 1.0
+ ef = 1.0
+ kf = 0.0
+ ntnoi = 1.0
* BSIM4 - Layout Dependent Parasitic Model Parameters
+ dmcg = 0.0
+ dmcgt = 0.0
+ dmdg = 0.0
+ xgw = 0.0
+ xgl = 0.0
+ ngcon = 1.0
* Diode DC IV Parameters
* BSIM4 - Diode DC IV parameters
+ diomod = 1.0
+ njs = 1.3632
+ jss = 2.1483e-5
+ jsws = 8.04e-10
+ xtis = 5.2
+ bvs = 12.69
+ xjbvs = 1.0
+ ijthsrev = 0.1
+ ijthsfwd = 0.1
* Diode and FET Capacitance Parameters
+ tpb = 0.0020386
+ tpbsw = 0.001246
+ tpbswg = 0.0
+ tcj = 0.0012407
+ tcjsw = 0.00037357
+ tcjswg = 2.0e-12
+ cgdo = 6.5637e-11
+ cgso = 6.5637e-11
+ cgbo = 0.0
+ capmod = 2.0
+ xpart = 0.0
+ cgsl = 1.1939967e-11
+ cgdl = 1.1939967e-11
+ cf = 1.2e-11
+ clc = 1.0e-7
+ cle = 0.6
+ dlc = -2.0325e-8
+ dwc = 3.2175e-8
+ vfbcv = -0.14469
+ acde = 0.8
+ moin = 18.13
+ noff = 3.9
+ voffcv = -0.10701
+ ngate = 1.0e+23
+ lwc = 0.0
+ llc = 0.0
+ lwlc = 0.0
+ wlc = 0.0
+ wwc = 0.0
+ wwlc = 0.0
* BSIM4 - FET and Diode capacitance parameters
+ ckappas = 0.6
+ cjs = 0.000808127811
+ mjs = 0.34629
+ pbs = 0.6587
+ cjsws = 1.082848e-10
+ mjsws = 0.29781
+ pbsws = 0.7418
+ cjswgs = 2.6187824e-10
+ mjswgs = 0.9274
+ pbswgs = 1.4338
* Stress Parameters
+ saref = 3.0e-6
+ sbref = 3.0e-6
+ wlod = {0+sky130_fd_pr__pfet_01v8__wlod_diff}
+ kvth0 = {0+sky130_fd_pr__pfet_01v8__kvth0_diff}
+ lkvth0 = {0+sky130_fd_pr__pfet_01v8__lkvth0_diff}
+ wkvth0 = {0+sky130_fd_pr__pfet_01v8__wkvth0_diff}
+ pkvth0 = 0.0
+ llodvth = 0.0
+ wlodvth = 1.0
+ stk2 = 0.0
+ lodk2 = 1.0
+ lodeta0 = 1.0
+ ku0 = {0+sky130_fd_pr__pfet_01v8__ku0_diff}
+ lku0 = {0+sky130_fd_pr__pfet_01v8__lku0_diff}
+ wku0 = {0+sky130_fd_pr__pfet_01v8__wku0_diff}
+ pku0 = 0.0
+ llodku0 = 0.0
+ wlodku0 = 1.0
+ kvsat = {0+sky130_fd_pr__pfet_01v8__kvsat_diff}
+ steta0 = 0.0
+ tku0 = 0.0
.model sky130_fd_pr__pfet_01v8__model.2 pmos
* DC IV MOS Parameters
+ lmin = 4e-06 lmax = 8e-06 wmin = 7e-06 wmax = 1.0e-4
+ level = 54.0
+ tnom = 30.0
+ version = 4.5
+ toxm = 4.23e-9
+ xj = 1.5e-7
+ lln = 1.0
+ lwn = 1.0
+ wln = 1.0
+ wwn = 1.0
+ lint = -3.1319e-8
+ ll = 0.0
+ lw = 0.0
+ lwl = 0.0
+ wint = 3.94789e-8
+ wl = 0.0
+ ww = 0.0
+ wwl = 0.0
+ xl = 0.0
+ xw = 0.0
+ mobmod = 0.0
+ binunit = 2.0
+ dwg = -5.722e-9
+ dwb = -1.7864e-8
* BSIM4 - Model Selectors
+ igcmod = 0.0
+ igbmod = 0.0
+ rgatemod = 0.0
+ rbodymod = 1.0
+ trnqsmod = 0.0
+ acnqsmod = 0.0
+ fnoimod = 1.0
+ tnoimod = 1.0
+ permod = 1.0
+ geomod = 0.0
+ rdsmod = 0.0
+ tempmod = 0.0
+ lintnoi = -2.0e-7
+ vfbsdoff = 0.0
+ lambda = 0.0
+ vtl = 0.0
+ lc = 5.0e-9
+ xn = 3.0
+ rnoia = 0.69
+ rnoib = 0.34
+ tnoia = 25.0e+6
+ tnoib = .0e-6
* BSIM4 - Process Parameters
+ epsrox = 3.9
+ toxe = {4.44996e-09+sky130_fd_pr__pfet_01v8__toxe_slope_spectre*(4.44996e-09*(sky130_fd_pr__pfet_01v8__toxe_slope/sqrt(l*w*mult)))}
+ dtox = 0.0
+ ndep = 1.7000000000000000e+17
+ nsd = 1.0e+20
+ rshg = 0.1
+ rsh = 1.0
* Threshold Voltage Parameters
+ vth0 = {-1.071713954212+sky130_fd_pr__pfet_01v8__vth0_slope_spectre*(sky130_fd_pr__pfet_01v8__vth0_slope/sqrt(l*w*mult))} lvth0 = 1.88017026439316e-8
+ k1 = 0.438164888574485 lk1 = -2.96653362582688e-8
+ k2 = 0.016478384967666 lk2 = 1.23355219578153e-8
+ k3 = -15.845
+ dvt0 = 4.4955
+ dvt1 = 0.294
+ dvt2 = 0.015
+ dvt0w = -4.9772
+ dvt1w = 1147200.0
+ dvt2w = -0.00896
+ w0 = 0.0
+ k3b = 2.0
* NEW BSIM4 Parameters for Level 54
+ phin = 0.0
+ lpe0 = 0.0
+ lpeb = 0.0
+ vbm = -3.0
+ dvtp0 = 0.0
+ dvtp1 = 0.0
* Mobility Parameters
+ vsat = 268861.1090625 lvsat = -0.875188140274457
+ ua = -5.7232489780447e-10 lua = 9.01946173183564e-17
+ ub = 7.87456738993755e-19 lub = -1.18700406061651e-25
+ uc = -7.3282823639794e-11 luc = 5.42846099804694e-17
+ rdsw = 547.88
+ prwb = -0.32348
+ prwg = 0.1376
+ wr = 1.0
+ u0 = 0.0096601242127 lu0 = 9.28620679364886e-10
+ a0 = 1.474672129245 la0 = -1.13588160877165e-6
+ keta = 0.0215972828408877 lketa = -1.32777726432629e-07 pketa = 1.0097419586829e-28
+ a1 = 0.0
+ a2 = 1.20212407025 la2 = -1.63368452851232e-6
+ ags = 0.0341385976396201 lags = 9.1365170708049e-7
+ b0 = 0.0
+ b1 = 0.0
* BSIM4 - Mobility Parameters
+ eu = 1.67
+ rdswmin = 0.0
+ rdw = 0.0
+ rdwmin = 0.0
+ rsw = 0.0
+ rswmin = 0.0
* Subthreshold Current Parameters
+ voff = {-0.227497548716745+sky130_fd_pr__pfet_01v8__voff_slope_spectre*(sky130_fd_pr__pfet_01v8__voff_slope/sqrt(l*w*mult))} lvoff = 4.88361942833796e-8
+ nfactor = {1.11405915264415+sky130_fd_pr__pfet_01v8__nfactor_slope_spectre*(sky130_fd_pr__pfet_01v8__nfactor_slope/sqrt(l*w*mult))} lnfactor = 1.40164645986788e-6
+ up = 0.0
+ ud = 0.0
+ lp = 1.0
+ tvfbsdoff = 0.0
+ tvoff = 0.0
+ cit = 1.0e-5
+ cdsc = 0.00013
+ cdscb = 0.00078
+ cdscd = 0.0
+ eta0 = 0.08
+ etab = -0.07
+ dsub = 0.56
* BSIM4 - Sub-threshold parameters
+ voffl = 0.0
+ minv = 0.0
* Rout Parameters
+ pclm = -0.437343739836769 lpclm = 3.53842204585403e-06 wpclm = -3.63959469523332e-23 ppclm = -3.66031460022549e-28
+ pdiblc1 = 0.39
+ pdiblc2 = 0.00581349077122623 lpdiblc2 = -2.29804885767347e-8
+ pdiblcb = -0.025
+ drout = 0.56
+ pscbe1 = 800000000.0
+ pscbe2 = 1.01483080305984e-08 lpscbe2 = -6.22607573712542e-15
+ pvag = 0.0
+ delta = 0.01
+ alpha0 = 1.0e-10
+ alpha1 = 1.0e-10
+ beta0 = 3.2324138664649 lbeta0 = 1.1400463169296e-5
* BSIM4 - Rout Parameters
+ fprout = 0.0
+ pdits = 0.0
+ pditsl = 0.0
+ pditsd = 0.0
* BSIM4 - Gate Induced Drain Leakage Model Parameters
+ agidl = 8.4131752392395e-11 lagidl = 1.27939936154485e-16
+ bgidl = 1364999653.579 lbgidl = -1482.86146261688
+ cgidl = 300.0
+ egidl = 0.1
* BSIM4 - Gate Leakage Current Parameters
+ aigbacc = 0.43
+ bigbacc = 0.054
+ cigbacc = 0.075
+ nigbacc = 1.0
+ aigbinv = 0.35
+ bigbinv = 0.03
+ cigbinv = 0.006
+ eigbinv = 1.1
+ nigbinv = 3.0
+ aigc = 0.43
+ bigc = 0.054
+ cigc = 0.075
+ nigc = 1.0
+ aigsd = 0.43
+ bigsd = 0.054
+ cigsd = 0.075
+ dlcig = 0.0
+ poxedge = 1.0
+ pigcd = 1.0
+ ntox = 1.0
+ toxref = 4.23e-9
* Temperature Effects Parameters
+ kt1 = -0.43142804353597 lkt1 = -1.37645004921234e-7
+ kt2 = 0.00995327517421449 lkt2 = -1.41288661886878e-7
+ at = 87833.957571185 lat = 0.0247203901961761
+ ute = -0.47558397427718 lute = 1.09687331667821e-6
+ ua1 = 1.22054489018415e-09 lua1 = 3.14326062289545e-15
+ ub1 = -2.9714671580816e-19 lub1 = -2.12654725174993e-24
+ uc1 = -8.812855842886e-11 luc1 = -1.64892569966253e-16
+ kt1l = 0.0
+ prt = 0.0
* BSIM4 - High Speed RF Model Parameters
+ xrcrg1 = 12.0
+ xrcrg2 = 1.0
+ rbpb = 50.0
+ rbpd = 50.0
+ rbps = 50.0
+ rbdb = 50.0
+ rbsb = 50.0
+ gbmin = 1.0e-12
* BSIM4 - Flicker and Thermal Noise Parameters
+ noia = 1.5e+42
+ noib = 0.0
+ noic = 0.0
+ em = 41000000.0
+ af = 1.0
+ ef = 1.0
+ kf = 0.0
+ ntnoi = 1.0
* BSIM4 - Layout Dependent Parasitic Model Parameters
+ dmcg = 0.0
+ dmcgt = 0.0
+ dmdg = 0.0
+ xgw = 0.0
+ xgl = 0.0
+ ngcon = 1.0
* Diode DC IV Parameters
* BSIM4 - Diode DC IV parameters
+ diomod = 1.0
+ njs = 1.3632
+ jss = 2.1483e-5
+ jsws = 8.04e-10
+ xtis = 5.2
+ bvs = 12.69
+ xjbvs = 1.0
+ ijthsrev = 0.1
+ ijthsfwd = 0.1
* Diode and FET Capacitance Parameters
+ tpb = 0.0020386
+ tpbsw = 0.001246
+ tpbswg = 0.0
+ tcj = 0.0012407
+ tcjsw = 0.00037357
+ tcjswg = 2.0e-12
+ cgdo = 6.5637e-11
+ cgso = 6.5637e-11
+ cgbo = 0.0
+ capmod = 2.0
+ xpart = 0.0
+ cgsl = 1.1939967e-11
+ cgdl = 1.1939967e-11
+ cf = 1.2e-11
+ clc = 1.0e-7
+ cle = 0.6
+ dlc = -2.0325e-8
+ dwc = 3.2175e-8
+ vfbcv = -0.14469
+ acde = 0.8
+ moin = 18.13
+ noff = 3.9
+ voffcv = -0.10701
+ ngate = 1.0e+23
+ lwc = 0.0
+ llc = 0.0
+ lwlc = 0.0
+ wlc = 0.0
+ wwc = 0.0
+ wwlc = 0.0
* BSIM4 - FET and Diode capacitance parameters
+ ckappas = 0.6
+ cjs = 0.000808127811
+ mjs = 0.34629
+ pbs = 0.6587
+ cjsws = 1.082848e-10
+ mjsws = 0.29781
+ pbsws = 0.7418
+ cjswgs = 2.6187824e-10
+ mjswgs = 0.9274
+ pbswgs = 1.4338
* Stress Parameters
+ saref = 3.0e-6
+ sbref = 3.0e-6
+ wlod = {0+sky130_fd_pr__pfet_01v8__wlod_diff}
+ kvth0 = {0+sky130_fd_pr__pfet_01v8__kvth0_diff}
+ lkvth0 = {0+sky130_fd_pr__pfet_01v8__lkvth0_diff}
+ wkvth0 = {0+sky130_fd_pr__pfet_01v8__wkvth0_diff}
+ pkvth0 = 0.0
+ llodvth = 0.0
+ wlodvth = 1.0
+ stk2 = 0.0
+ lodk2 = 1.0
+ lodeta0 = 1.0
+ ku0 = {0+sky130_fd_pr__pfet_01v8__ku0_diff}
+ lku0 = {0+sky130_fd_pr__pfet_01v8__lku0_diff}
+ wku0 = {0+sky130_fd_pr__pfet_01v8__wku0_diff}
+ pku0 = 0.0
+ llodku0 = 0.0
+ wlodku0 = 1.0
+ kvsat = {0+sky130_fd_pr__pfet_01v8__kvsat_diff}
+ steta0 = 0.0
+ tku0 = 0.0
.model sky130_fd_pr__pfet_01v8__model.3 pmos
* DC IV MOS Parameters
+ lmin = 2e-06 lmax = 4e-06 wmin = 7e-06 wmax = 1.0e-4
+ level = 54.0
+ tnom = 30.0
+ version = 4.5
+ toxm = 4.23e-9
+ xj = 1.5e-7
+ lln = 1.0
+ lwn = 1.0
+ wln = 1.0
+ wwn = 1.0
+ lint = -3.1319e-8
+ ll = 0.0
+ lw = 0.0
+ lwl = 0.0
+ wint = 3.94789e-8
+ wl = 0.0
+ ww = 0.0
+ wwl = 0.0
+ xl = 0.0
+ xw = 0.0
+ mobmod = 0.0
+ binunit = 2.0
+ dwg = -5.722e-9
+ dwb = -1.7864e-8
* BSIM4 - Model Selectors
+ igcmod = 0.0
+ igbmod = 0.0
+ rgatemod = 0.0
+ rbodymod = 1.0
+ trnqsmod = 0.0
+ acnqsmod = 0.0
+ fnoimod = 1.0
+ tnoimod = 1.0
+ permod = 1.0
+ geomod = 0.0
+ rdsmod = 0.0
+ tempmod = 0.0
+ lintnoi = -2.0e-7
+ vfbsdoff = 0.0
+ lambda = 0.0
+ vtl = 0.0
+ lc = 5.0e-9
+ xn = 3.0
+ rnoia = 0.69
+ rnoib = 0.34
+ tnoia = 25.0e+6
+ tnoib = .0e-6
* BSIM4 - Process Parameters
+ epsrox = 3.9
+ toxe = {4.44996e-09+sky130_fd_pr__pfet_01v8__toxe_slope_spectre*(4.44996e-09*(sky130_fd_pr__pfet_01v8__toxe_slope/sqrt(l*w*mult)))}
+ dtox = 0.0
+ ndep = 1.7000000000000000e+17
+ nsd = 1.0e+20
+ rshg = 0.1
+ rsh = 1.0
* Threshold Voltage Parameters
+ vth0 = {-1.0736386915303+sky130_fd_pr__pfet_01v8__vth0_slope_spectre*(sky130_fd_pr__pfet_01v8__vth0_slope/sqrt(l*w*mult))} lvth0 = 2.66212136132752e-8
+ k1 = 0.42415958432975 lk1 = 2.72331449679531e-8
+ k2 = 0.021881869435854 lk2 = -9.61687937505504e-9
+ k3 = -15.845
+ dvt0 = 4.4955
+ dvt1 = 0.294
+ dvt2 = 0.015
+ dvt0w = -4.9772
+ dvt1w = 1147200.0
+ dvt2w = -0.00896
+ w0 = 0.0
+ k3b = 2.0
* NEW BSIM4 Parameters for Level 54
+ phin = 0.0
+ lpe0 = 0.0
+ lpeb = 0.0
+ vbm = -3.0
+ dvtp0 = 0.0
+ dvtp1 = 0.0
* Mobility Parameters
+ vsat = 53437.5
+ ua = -2.2098226734349e-10 lua = -1.33718330421238e-15
+ ub = 5.0506631000493e-19 lub = 1.02854968158465e-24
+ uc = -8.1250014202858e-11 luc = 8.66524211152146e-17
+ rdsw = 547.88
+ prwb = -0.32348
+ prwg = 0.1376
+ wr = 1.0
+ u0 = 0.01110981263557 lu0 = -4.96093859554684e-9
+ a0 = 1.215236098536 la0 = -8.18869318440973e-8
+ keta = -0.00536872903134401 lketa = -2.32245818920487e-8
+ a1 = 0.0
+ a2 = 0.8
+ ags = 0.0616891254330901 lags = 8.01723885946682e-7
+ b0 = 0.0
+ b1 = 0.0
* BSIM4 - Mobility Parameters
+ eu = 1.67
+ rdswmin = 0.0
+ rdw = 0.0
+ rdwmin = 0.0
+ rsw = 0.0
+ rswmin = 0.0
* Subthreshold Current Parameters
+ voff = {-0.22143888795771+sky130_fd_pr__pfet_01v8__voff_slope_spectre*(sky130_fd_pr__pfet_01v8__voff_slope/sqrt(l*w*mult))} lvoff = 2.4222048854615e-8
+ nfactor = {1.4671344584266+sky130_fd_pr__pfet_01v8__nfactor_slope_spectre*(sky130_fd_pr__pfet_01v8__nfactor_slope/sqrt(l*w*mult))} lnfactor = -3.27706942655251e-8
+ up = 0.0
+ ud = 0.0
+ lp = 1.0
+ tvfbsdoff = 0.0
+ tvoff = 0.0
+ cit = 1.0e-5
+ cdsc = 0.00013
+ cdscb = 0.00078
+ cdscd = 0.0
+ eta0 = 0.1619898605 leta0 = -3.33095122881999e-7
+ etab = -0.141676670056533 letab = 2.91196363485133e-7
+ dsub = 0.8693957 ldsub = -1.2569627278566e-6
* BSIM4 - Sub-threshold parameters
+ voffl = 0.0
+ minv = 0.0
* Rout Parameters
+ pclm = 0.46514143279979 lpclm = -1.28048510935813e-7
+ pdiblc1 = 0.39
+ pdiblc2 = -2.46391392811899e-05 lpdiblc2 = 7.37719846629315e-10
+ pdiblcb = -0.025
+ drout = 0.56
+ pscbe1 = 800453914.43147 lpscbe1 = -1.84409001803806
+ pscbe2 = 8.2808066288523e-09 lpscbe2 = 1.36090642266155e-15
+ pvag = 0.0
+ delta = 0.01
+ alpha0 = 1.0e-10
+ alpha1 = 1.0e-10
+ beta0 = 3.8583712272946 lbeta0 = 8.85742500880952e-6
* BSIM4 - Rout Parameters
+ fprout = 0.0
+ pdits = 0.0
+ pditsl = 0.0
+ pditsd = 0.0
* BSIM4 - Gate Induced Drain Leakage Model Parameters
+ agidl = 1.3173649521521e-10 lagidl = -6.54609010177104e-17 wagidl = 1.97215226305253e-31
+ bgidl = 915838594.2136 lbgidl = 341.917325281249
+ cgidl = 300.0
+ egidl = 0.1
* BSIM4 - Gate Leakage Current Parameters
+ aigbacc = 0.43
+ bigbacc = 0.054
+ cigbacc = 0.075
+ nigbacc = 1.0
+ aigbinv = 0.35
+ bigbinv = 0.03
+ cigbinv = 0.006
+ eigbinv = 1.1
+ nigbinv = 3.0
+ aigc = 0.43
+ bigc = 0.054
+ cigc = 0.075
+ nigc = 1.0
+ aigsd = 0.43
+ bigsd = 0.054
+ cigsd = 0.075
+ dlcig = 0.0
+ poxedge = 1.0
+ pigcd = 1.0
+ ntox = 1.0
+ toxref = 4.23e-9
* Temperature Effects Parameters
+ kt1 = -0.46638552985471 lkt1 = 4.37460738175925e-9
+ kt2 = -0.00514777539406101 lkt2 = -7.99385600082808e-8
+ at = 107262.402188066 lat = -0.0542103471852601
+ ute = -0.17519952681143 lute = -1.23479954205146e-7
+ ua1 = 2.3512472320185e-09 lua1 = -1.45037367772978e-15
+ ub1 = -1.03511635614758e-18 lub1 = 8.71556251939332e-25
+ uc1 = -2.44462937652451e-10 luc1 = 4.70237419773918e-16
+ kt1l = 0.0
+ prt = 0.0
* BSIM4 - High Speed RF Model Parameters
+ xrcrg1 = 12.0
+ xrcrg2 = 1.0
+ rbpb = 50.0
+ rbpd = 50.0
+ rbps = 50.0
+ rbdb = 50.0
+ rbsb = 50.0
+ gbmin = 1.0e-12
* BSIM4 - Flicker and Thermal Noise Parameters
+ noia = 1.5e+42
+ noib = 0.0
+ noic = 0.0
+ em = 41000000.0
+ af = 1.0
+ ef = 1.0
+ kf = 0.0
+ ntnoi = 1.0
* BSIM4 - Layout Dependent Parasitic Model Parameters
+ dmcg = 0.0
+ dmcgt = 0.0
+ dmdg = 0.0
+ xgw = 0.0
+ xgl = 0.0
+ ngcon = 1.0
* Diode DC IV Parameters
* BSIM4 - Diode DC IV parameters
+ diomod = 1.0
+ njs = 1.3632
+ jss = 2.1483e-5
+ jsws = 8.04e-10
+ xtis = 5.2
+ bvs = 12.69
+ xjbvs = 1.0
+ ijthsrev = 0.1
+ ijthsfwd = 0.1
* Diode and FET Capacitance Parameters
+ tpb = 0.0020386
+ tpbsw = 0.001246
+ tpbswg = 0.0
+ tcj = 0.0012407
+ tcjsw = 0.00037357
+ tcjswg = 2.0e-12
+ cgdo = 6.5637e-11
+ cgso = 6.5637e-11
+ cgbo = 0.0
+ capmod = 2.0
+ xpart = 0.0
+ cgsl = 1.1939967e-11
+ cgdl = 1.1939967e-11
+ cf = 1.2e-11
+ clc = 1.0e-7
+ cle = 0.6
+ dlc = -2.0325e-8
+ dwc = 3.2175e-8
+ vfbcv = -0.14469
+ acde = 0.8
+ moin = 18.13
+ noff = 3.9
+ voffcv = -0.10701
+ ngate = 1.0e+23
+ lwc = 0.0
+ llc = 0.0
+ lwlc = 0.0
+ wlc = 0.0
+ wwc = 0.0
+ wwlc = 0.0
* BSIM4 - FET and Diode capacitance parameters
+ ckappas = 0.6
+ cjs = 0.000808127811
+ mjs = 0.34629
+ pbs = 0.6587
+ cjsws = 1.082848e-10
+ mjsws = 0.29781
+ pbsws = 0.7418
+ cjswgs = 2.6187824e-10
+ mjswgs = 0.9274
+ pbswgs = 1.4338
* Stress Parameters
+ saref = 3.0e-6
+ sbref = 3.0e-6
+ wlod = {0+sky130_fd_pr__pfet_01v8__wlod_diff}
+ kvth0 = {0+sky130_fd_pr__pfet_01v8__kvth0_diff}
+ lkvth0 = {0+sky130_fd_pr__pfet_01v8__lkvth0_diff}
+ wkvth0 = {0+sky130_fd_pr__pfet_01v8__wkvth0_diff}
+ pkvth0 = 0.0
+ llodvth = 0.0
+ wlodvth = 1.0
+ stk2 = 0.0
+ lodk2 = 1.0
+ lodeta0 = 1.0
+ ku0 = {0+sky130_fd_pr__pfet_01v8__ku0_diff}
+ lku0 = {0+sky130_fd_pr__pfet_01v8__lku0_diff}
+ wku0 = {0+sky130_fd_pr__pfet_01v8__wku0_diff}
+ pku0 = 0.0
+ llodku0 = 0.0
+ wlodku0 = 1.0
+ kvsat = {0+sky130_fd_pr__pfet_01v8__kvsat_diff}
+ steta0 = 0.0
+ tku0 = 0.0
.model sky130_fd_pr__pfet_01v8__model.4 pmos
* DC IV MOS Parameters
+ lmin = 1e-06 lmax = 2e-06 wmin = 7e-06 wmax = 1.0e-4
+ level = 54.0
+ tnom = 30.0
+ version = 4.5
+ toxm = 4.23e-9
+ xj = 1.5e-7
+ lln = 1.0
+ lwn = 1.0
+ wln = 1.0
+ wwn = 1.0
+ lint = -3.1319e-8
+ ll = 0.0
+ lw = 0.0
+ lwl = 0.0
+ wint = 3.94789e-8
+ wl = 0.0
+ ww = 0.0
+ wwl = 0.0
+ xl = 0.0
+ xw = 0.0
+ mobmod = 0.0
+ binunit = 2.0
+ dwg = -5.722e-9
+ dwb = -1.7864e-8
* BSIM4 - Model Selectors
+ igcmod = 0.0
+ igbmod = 0.0
+ rgatemod = 0.0
+ rbodymod = 1.0
+ trnqsmod = 0.0
+ acnqsmod = 0.0
+ fnoimod = 1.0
+ tnoimod = 1.0
+ permod = 1.0
+ geomod = 0.0
+ rdsmod = 0.0
+ tempmod = 0.0
+ lintnoi = -2.0e-7
+ vfbsdoff = 0.0
+ lambda = 0.0
+ vtl = 0.0
+ lc = 5.0e-9
+ xn = 3.0
+ rnoia = 0.69
+ rnoib = 0.34
+ tnoia = 25.0e+6
+ tnoib = .0e-6
* BSIM4 - Process Parameters
+ epsrox = 3.9
+ toxe = {4.44996e-09+sky130_fd_pr__pfet_01v8__toxe_slope_spectre*(4.44996e-09*(sky130_fd_pr__pfet_01v8__toxe_slope/sqrt(l*w*mult)))}
+ dtox = 0.0
+ ndep = 1.7000000000000000e+17
+ nsd = 1.0e+20
+ rshg = 0.1
+ rsh = 1.0
* Threshold Voltage Parameters
+ vth0 = {-1.0810491947134+sky130_fd_pr__pfet_01v8__vth0_slope_spectre*(sky130_fd_pr__pfet_01v8__vth0_slope/sqrt(l*w*mult))} lvth0 = 4.19063990778584e-8
+ k1 = 0.3517509538705 lk1 = 1.7658593768116e-7
+ k2 = 0.050734812238536 lk2 = -6.91300556116934e-08 pk2 = 5.04870979341448e-29
+ k3 = -15.845
+ dvt0 = 4.4955
+ dvt1 = 0.294
+ dvt2 = 0.015
+ dvt0w = -4.9772
+ dvt1w = 1147200.0
+ dvt2w = -0.00896
+ w0 = 0.0
+ k3b = 2.0
* NEW BSIM4 Parameters for Level 54
+ phin = 0.0
+ lpe0 = 0.0
+ lpeb = 0.0
+ vbm = -3.0
+ dvtp0 = 0.0
+ dvtp1 = 0.0
* Mobility Parameters
+ vsat = 34509.260625 lvsat = 0.0390421058079712
+ ua = -7.41991490889919e-10 lua = -2.62529881375017e-16
+ ub = 9.5358754654408e-19 lub = 1.03412735292012e-25
+ uc = -4.311338214219e-11 luc = 7.99035463486248e-18
+ rdsw = 547.88
+ prwb = -0.32348
+ prwg = 0.1376
+ wr = 1.0
+ u0 = 0.00938543840832 lu0 = -1.40417878820035e-9
+ a0 = 1.339169500344 la0 = -3.37516675882548e-7
+ keta = -0.00634552755000199 lketa = -2.1209800149121e-8
+ a1 = 0.0
+ a2 = 0.6937362 la2 = 2.191837519044e-7
+ ags = 0.3200841249827 lags = 2.68748540865674e-7
+ b0 = 0.0
+ b1 = 0.0
* BSIM4 - Mobility Parameters
+ eu = 1.67
+ rdswmin = 0.0
+ rdw = 0.0
+ rdwmin = 0.0
+ rsw = 0.0
+ rswmin = 0.0
* Subthreshold Current Parameters
+ voff = {-0.2244805575492+sky130_fd_pr__pfet_01v8__voff_slope_spectre*(sky130_fd_pr__pfet_01v8__voff_slope/sqrt(l*w*mult))} lvoff = 3.04959121374668e-8
+ nfactor = {1.1842794114134+sky130_fd_pr__pfet_01v8__nfactor_slope_spectre*(sky130_fd_pr__pfet_01v8__nfactor_slope/sqrt(l*w*mult))} lnfactor = 5.50656874195687e-7
+ up = 0.0
+ ud = 0.0
+ lp = 1.0
+ tvfbsdoff = 0.0
+ tvoff = 0.0
+ cit = 1.0e-5
+ cdsc = 0.00013
+ cdscb = 0.00078
+ cdscd = 0.0
+ eta0 = -0.519661301 leta0 = 1.07290446557204e-06 weta0 = 1.15805285757424e-23 peta0 = 3.47098798297245e-28
+ etab = 7.90303547058587 letab = -1.63021325968652e-05 wetab = 1.07698915754404e-21 petab = -8.10160149661979e-27
+ dsub = 0.26
* BSIM4 - Sub-threshold parameters
+ voffl = 0.0
+ minv = 0.0
* Rout Parameters
+ pclm = 0.17517350209466 lpclm = 4.70050361717955e-7
+ pdiblc1 = 0.40922897655538 lpdiblc1 = -3.9662417744236e-8
+ pdiblc2 = 0.00022996388166064 lpdiblc2 = 2.12565980719901e-10
+ pdiblcb = -0.0507746564432779 lpdiblcb = 5.31637858168499e-8
+ drout = 0.39466727773572 ldrout = 3.4102155558575e-7
+ pscbe1 = 799092171.13706 lpscbe1 = 0.964693447256877
+ pscbe2 = 8.9459879377396e-09 lpscbe2 = -1.1121821939135e-17
+ pvag = 0.0
+ delta = 0.01
+ alpha0 = -4.7443750631206e-05 lalpha0 = 9.78594891782495e-11 walpha0 = 7.17685930047446e-27 palpha0 = 2.04423169585399e-32
+ alpha1 = 2.062638e-10 lalpha1 = -2.191837519044e-16
+ beta0 = -14.951711701752 lbeta0 = 4.76558168414124e-05 pbeta0 = -2.58493941422821e-26
* BSIM4 - Rout Parameters
+ fprout = 0.0
+ pdits = 0.0
+ pditsl = 0.0
+ pditsd = 0.0
* BSIM4 - Gate Induced Drain Leakage Model Parameters
+ agidl = 1.0e-10
+ bgidl = 788249290.6404 lbgidl = 605.087871224867
+ cgidl = 300.0
+ egidl = 0.1
* BSIM4 - Gate Leakage Current Parameters
+ aigbacc = 0.43
+ bigbacc = 0.054
+ cigbacc = 0.075
+ nigbacc = 1.0
+ aigbinv = 0.35
+ bigbinv = 0.03
+ cigbinv = 0.006
+ eigbinv = 1.1
+ nigbinv = 3.0
+ aigc = 0.43
+ bigc = 0.054
+ cigc = 0.075
+ nigc = 1.0
+ aigsd = 0.43
+ bigsd = 0.054
+ cigsd = 0.075
+ dlcig = 0.0
+ poxedge = 1.0
+ pigcd = 1.0
+ ntox = 1.0
+ toxref = 4.23e-9