* Copyright 2020 The SkyWater PDK Authors
*
* Licensed under the Apache License, Version 2.0 (the "License");
* you may not use this file except in compliance with the License.
* You may obtain a copy of the License at
*
*     https://www.apache.org/licenses/LICENSE-2.0
*
* Unless required by applicable law or agreed to in writing, software
* distributed under the License is distributed on an "AS IS" BASIS,
* WITHOUT WARRANTIES OR CONDITIONS OF ANY KIND, either express or implied.
* See the License for the specific language governing permissions and
* limitations under the License.

* SKY130 Spice File.
.param sky130_fd_pr__pfet_01v8__toxe_slope_spectre = 0.0
.param sky130_fd_pr__pfet_01v8__vth0_slope_spectre = 0.0
.param sky130_fd_pr__pfet_01v8__voff_slope_spectre = 0.0
.param sky130_fd_pr__pfet_01v8__nfactor_slope_spectre = 0.0
* statistics {
*   process {
*   }
*   mismatch {
*     vary sky130_fd_pr__pfet_01v8__toxe_slope_spectre dist=gauss std = 1.0
*     vary sky130_fd_pr__pfet_01v8__vth0_slope_spectre dist=gauss std = 1.0
*     vary sky130_fd_pr__pfet_01v8__voff_slope_spectre dist=gauss std = 1.0
*     vary sky130_fd_pr__pfet_01v8__nfactor_slope_spectre dist=gauss std = 1.0
*   }
* }
.subckt  sky130_fd_pr__pfet_01v8 d g s b
+ 
.param  l = 1 w = 1 ad = 0 as = 0 pd = 0 ps = 0 nrd = 0 nrs = 0 sa = 0 sb = 0 sd = 0 mult = 1 nf = 1.0
msky130_fd_pr__pfet_01v8 d g s b sky130_fd_pr__pfet_01v8__model l = {l} w = {w} ad = {ad} as = {as} pd = {pd} ps = {ps} nrd = {nrd} nrs = {nrs} sa = {sa} sb = {sb} sd = {sd} nf = {nf}
.model sky130_fd_pr__pfet_01v8__model.0 pmos
* DC IV MOS Parameters
+ lmin = 2.0e-05 lmax = 1.0e-04 wmin = 7e-06 wmax = 1.0e-4
+ level = 54.0
+ tnom = 30.0
+ version = 4.5
+ toxm = 4.23e-9
+ xj = 1.5e-7
+ lln = 1.0
+ lwn = 1.0
+ wln = 1.0
+ wwn = 1.0
+ lint = -1.8665e-9
+ ll = 0.0
+ lw = 0.0
+ lwl = 0.0
+ wint = -1.52161e-8
+ wl = 0.0
+ ww = 0.0
+ wwl = 0.0
+ xl = 0.0
+ xw = 0.0
+ mobmod = 0.0
+ binunit = 2.0
+ dwg = -5.722e-9
+ dwb = -1.7864e-8
* BSIM4 - Model Selectors
+ igcmod = 0.0
+ igbmod = 0.0
+ rgatemod = 0.0
+ rbodymod = 1.0
+ trnqsmod = 0.0
+ acnqsmod = 0.0
+ fnoimod = 1.0
+ tnoimod = 1.0
+ permod = 1.0
+ geomod = 0.0
+ rdsmod = 0.0
+ tempmod = 0.0
+ lintnoi = -2.0e-7
+ vfbsdoff = 0.0
+ lambda = 0.0
+ vtl = 0.0
+ lc = 5.0e-9
+ xn = 3.0
+ rnoia = 0.69
+ rnoib = 0.34
+ tnoia = 25.0e+6
+ tnoib = .0e-6
* BSIM4 - Process Parameters
+ epsrox = 3.9
+ toxe = {4.075605e-09+sky130_fd_pr__pfet_01v8__toxe_slope_spectre*(4.075605e-09*(sky130_fd_pr__pfet_01v8__toxe_slope/sqrt(l*w*mult)))}
+ dtox = 0.0
+ ndep = 1.7000000000000000e+17
+ nsd = 1.0e+20
+ rshg = 0.1
+ rsh = 1.0
* Threshold Voltage Parameters
+ vth0 = {-1.0498303+sky130_fd_pr__pfet_01v8__vth0_slope_spectre*(sky130_fd_pr__pfet_01v8__vth0_slope/sqrt(l*w*mult))}
+ k1 = 0.43448553
+ k2 = 0.021784346
+ k3 = -15.845
+ dvt0 = 4.4955
+ dvt1 = 0.294
+ dvt2 = 0.015
+ dvt0w = -4.9772
+ dvt1w = 1147200.0
+ dvt2w = -0.00896
+ w0 = 0.0
+ k3b = 2.0
* NEW BSIM4 Parameters for Level 54
+ phin = 0.0
+ lpe0 = 0.0
+ lpeb = 0.0
+ vbm = -3.0
+ dvtp0 = 0.0
+ dvtp1 = 0.0
* Mobility Parameters
+ vsat = 160312.5
+ ua = -5.9240701e-10
+ ub = 9.3030446e-19
+ uc = -6.6549964e-11
+ rdsw = 547.88
+ prwb = -0.32348
+ prwg = 0.1376
+ wr = 1.0
+ u0 = 0.0104306
+ a0 = 1.171369
+ keta = 0.0051290095
+ a1 = 0.0
+ a2 = 0.9995
+ ags = 0.2846738
+ b0 = 0.0
+ b1 = 0.0
* BSIM4 - Mobility Parameters
+ eu = 1.67
+ rdswmin = 0.0
+ rdw = 0.0
+ rdwmin = 0.0
+ rsw = 0.0
+ rswmin = 0.0
* Subthreshold Current Parameters
+ voff = {-0.28370745+sky130_fd_pr__pfet_01v8__voff_slope_spectre*(sky130_fd_pr__pfet_01v8__voff_slope/sqrt(l*w*mult))}
+ nfactor = {1.3961358+sky130_fd_pr__pfet_01v8__nfactor_slope_spectre*(sky130_fd_pr__pfet_01v8__nfactor_slope/sqrt(l*w*mult))}
+ up = 0.0
+ ud = 0.0
+ lp = 1.0
+ tvfbsdoff = 0.0
+ tvoff = 0.0
+ cit = 1.0e-5
+ cdsc = 0.00013
+ cdscb = 0.00078
+ cdscd = 0.0
+ eta0 = 0.08
+ etab = -0.07
+ dsub = 0.56
* BSIM4 - Sub-threshold parameters
+ voffl = 0.0
+ minv = 0.0
* Rout Parameters
+ pclm = 0.0015228006
+ pdiblc1 = 0.39
+ pdiblc2 = 0.0029632464
+ pdiblcb = -0.025
+ drout = 0.56
+ pscbe1 = 800000000.0
+ pscbe2 = 9.3760948e-9
+ pvag = 0.0
+ delta = 0.01
+ alpha0 = 1.0e-10
+ alpha1 = 1.0e-10
+ beta0 = 4.6464006
* BSIM4 - Rout Parameters
+ fprout = 0.0
+ pdits = 0.0
+ pditsl = 0.0
+ pditsd = 0.0
* BSIM4 - Gate Induced Drain Leakage Model Parameters
+ agidl = 1.0e-10
+ bgidl = 1181082000.0
+ cgidl = 300.0
+ egidl = 0.1
* BSIM4 - Gate Leakage Current Parameters
+ aigbacc = 0.43
+ bigbacc = 0.054
+ cigbacc = 0.075
+ nigbacc = 1.0
+ aigbinv = 0.35
+ bigbinv = 0.03
+ cigbinv = 0.006
+ eigbinv = 1.1
+ nigbinv = 3.0
+ aigc = 0.43
+ bigc = 0.054
+ cigc = 0.075
+ nigc = 1.0
+ aigsd = 0.43
+ bigsd = 0.054
+ cigsd = 0.075
+ dlcig = 0.0
+ poxedge = 1.0
+ pigcd = 1.0
+ ntox = 1.0
+ toxref = 4.23e-9
* Temperature Effects Parameters
+ kt1 = -0.4485
+ kt2 = -0.0075706
+ at = 90900.0
+ ute = -0.33954
+ ua1 = 1.6104e-9
+ ub1 = -5.609e-19
+ uc1 = -1.0858e-10
+ kt1l = 0.0
+ prt = 0.0
* BSIM4 - High Speed RF Model Parameters
+ xrcrg1 = 12.0
+ xrcrg2 = 1.0
+ rbpb = 50.0
+ rbpd = 50.0
+ rbps = 50.0
+ rbdb = 50.0
+ rbsb = 50.0
+ gbmin = 1.0e-12
* BSIM4 - Flicker and Thermal Noise Parameters
+ noia = 1.5e+42
+ noib = 0.0
+ noic = 0.0
+ em = 41000000.0
+ af = 1.0
+ ef = 1.0
+ kf = 0.0
+ ntnoi = 1.0
* BSIM4 - Layout Dependent Parasitic Model Parameters
+ dmcg = 0.0
+ dmcgt = 0.0
+ dmdg = 0.0
+ xgw = 0.0
+ xgl = 0.0
+ ngcon = 1.0
* Diode DC IV Parameters
* BSIM4 - Diode DC IV parameters
+ diomod = 1.0
+ njs = 1.3632
+ jss = 2.1483e-5
+ jsws = 8.04e-10
+ xtis = 5.2
+ bvs = 12.69
+ xjbvs = 1.0
+ ijthsrev = 0.1
+ ijthsfwd = 0.1
* Diode and FET Capacitance Parameters
+ tpb = 0.0020386
+ tpbsw = 0.001246
+ tpbswg = 0.0
+ tcj = 0.0012407
+ tcjsw = 0.00037357
+ tcjswg = 2.0e-12
+ cgdo = 4.86838e-11
+ cgso = 4.86838e-11
+ cgbo = 0.0
+ capmod = 2.0
+ xpart = 0.0
+ cgsl = 8.8560258e-12
+ cgdl = 8.8560258e-12
+ cf = 1.2e-11
+ clc = 1.0e-7
+ cle = 0.6
+ dlc = 9.1275e-9
+ dwc = -2.252e-8
+ vfbcv = -0.14469
+ acde = 0.8
+ moin = 18.13
+ noff = 3.9
+ voffcv = -0.10701
+ ngate = 1.0e+23
+ lwc = 0.0
+ llc = 0.0
+ lwlc = 0.0
+ wlc = 0.0
+ wwc = 0.0
+ wwlc = 0.0
* BSIM4 - FET and Diode capacitance parameters
+ ckappas = 0.6
+ cjs = 0.0006889421079
+ mjs = 0.34629
+ pbs = 0.6587
+ cjsws = 9.2317732e-11
+ mjsws = 0.29781
+ pbsws = 0.7418
+ cjswgs = 2.232631466e-10
+ mjswgs = 0.9274
+ pbswgs = 1.4338
* Stress Parameters
+ saref = 3.0e-6
+ sbref = 3.0e-6
+ wlod = {0+sky130_fd_pr__pfet_01v8__wlod_diff}
+ kvth0 = {0+sky130_fd_pr__pfet_01v8__kvth0_diff}
+ lkvth0 = {0+sky130_fd_pr__pfet_01v8__lkvth0_diff}
+ wkvth0 = {0+sky130_fd_pr__pfet_01v8__wkvth0_diff}
+ pkvth0 = 0.0
+ llodvth = 0.0
+ wlodvth = 1.0
+ stk2 = 0.0
+ lodk2 = 1.0
+ lodeta0 = 1.0
+ ku0 = {0+sky130_fd_pr__pfet_01v8__ku0_diff}
+ lku0 = {0+sky130_fd_pr__pfet_01v8__lku0_diff}
+ wku0 = {0+sky130_fd_pr__pfet_01v8__wku0_diff}
+ pku0 = 0.0
+ llodku0 = 0.0
+ wlodku0 = 1.0
+ kvsat = {0+sky130_fd_pr__pfet_01v8__kvsat_diff}
+ steta0 = 0.0
+ tku0 = 0.0
.model sky130_fd_pr__pfet_01v8__model.1 pmos
* DC IV MOS Parameters
+ lmin = 8e-06 lmax = 2.0e-05 wmin = 7e-06 wmax = 1.0e-4
+ level = 54.0
+ tnom = 30.0
+ version = 4.5
+ toxm = 4.23e-9
+ xj = 1.5e-7
+ lln = 1.0
+ lwn = 1.0
+ wln = 1.0
+ wwn = 1.0
+ lint = -1.8665e-9
+ ll = 0.0
+ lw = 0.0
+ lwl = 0.0
+ wint = -1.52161e-8
+ wl = 0.0
+ ww = 0.0
+ wwl = 0.0
+ xl = 0.0
+ xw = 0.0
+ mobmod = 0.0
+ binunit = 2.0
+ dwg = -5.722e-9
+ dwb = -1.7864e-8
* BSIM4 - Model Selectors
+ igcmod = 0.0
+ igbmod = 0.0
+ rgatemod = 0.0
+ rbodymod = 1.0
+ trnqsmod = 0.0
+ acnqsmod = 0.0
+ fnoimod = 1.0
+ tnoimod = 1.0
+ permod = 1.0
+ geomod = 0.0
+ rdsmod = 0.0
+ tempmod = 0.0
+ lintnoi = -2.0e-7
+ vfbsdoff = 0.0
+ lambda = 0.0
+ vtl = 0.0
+ lc = 5.0e-9
+ xn = 3.0
+ rnoia = 0.69
+ rnoib = 0.34
+ tnoia = 25.0e+6
+ tnoib = .0e-6
* BSIM4 - Process Parameters
+ epsrox = 3.9
+ toxe = {4.075605e-09+sky130_fd_pr__pfet_01v8__toxe_slope_spectre*(4.075605e-09*(sky130_fd_pr__pfet_01v8__toxe_slope/sqrt(l*w*mult)))}
+ dtox = 0.0
+ ndep = 1.7000000000000000e+17
+ nsd = 1.0e+20
+ rshg = 0.1
+ rsh = 1.0
* Threshold Voltage Parameters
+ vth0 = {-1.0498303+sky130_fd_pr__pfet_01v8__vth0_slope_spectre*(sky130_fd_pr__pfet_01v8__vth0_slope/sqrt(l*w*mult))}
+ k1 = 0.43448553
+ k2 = 0.021784346
+ k3 = -15.845
+ dvt0 = 4.4955
+ dvt1 = 0.294
+ dvt2 = 0.015
+ dvt0w = -4.9772
+ dvt1w = 1147200.0
+ dvt2w = -0.00896
+ w0 = 0.0
+ k3b = 2.0
* NEW BSIM4 Parameters for Level 54
+ phin = 0.0
+ lpe0 = 0.0
+ lpeb = 0.0
+ vbm = -3.0
+ dvtp0 = 0.0
+ dvtp1 = 0.0
* Mobility Parameters
+ vsat = 160312.5
+ ua = -5.9240701e-10
+ ub = 9.3030446e-19
+ uc = -6.6549964e-11
+ rdsw = 547.88
+ prwb = -0.32348
+ prwg = 0.1376
+ wr = 1.0
+ u0 = 0.0104306
+ a0 = 1.171369
+ keta = 0.0051290095
+ a1 = 0.0
+ a2 = 0.9995
+ ags = 0.2846738
+ b0 = 0.0
+ b1 = 0.0
* BSIM4 - Mobility Parameters
+ eu = 1.67
+ rdswmin = 0.0
+ rdw = 0.0
+ rdwmin = 0.0
+ rsw = 0.0
+ rswmin = 0.0
* Subthreshold Current Parameters
+ voff = {-0.28370745+sky130_fd_pr__pfet_01v8__voff_slope_spectre*(sky130_fd_pr__pfet_01v8__voff_slope/sqrt(l*w*mult))}
+ nfactor = {1.3961358+sky130_fd_pr__pfet_01v8__nfactor_slope_spectre*(sky130_fd_pr__pfet_01v8__nfactor_slope/sqrt(l*w*mult))}
+ up = 0.0
+ ud = 0.0
+ lp = 1.0
+ tvfbsdoff = 0.0
+ tvoff = 0.0
+ cit = 1.0e-5
+ cdsc = 0.00013
+ cdscb = 0.00078
+ cdscd = 0.0
+ eta0 = 0.08
+ etab = -0.07
+ dsub = 0.56
* BSIM4 - Sub-threshold parameters
+ voffl = 0.0
+ minv = 0.0
* Rout Parameters
+ pclm = 0.0015228006
+ pdiblc1 = 0.39
+ pdiblc2 = 0.0029632464
+ pdiblcb = -0.025
+ drout = 0.56
+ pscbe1 = 800000000.0
+ pscbe2 = 9.3760948e-9
+ pvag = 0.0
+ delta = 0.01
+ alpha0 = 1.0e-10
+ alpha1 = 1.0e-10
+ beta0 = 4.6464006
* BSIM4 - Rout Parameters
+ fprout = 0.0
+ pdits = 0.0
+ pditsl = 0.0
+ pditsd = 0.0
* BSIM4 - Gate Induced Drain Leakage Model Parameters
+ agidl = 1.0e-10
+ bgidl = 1181082000.0
+ cgidl = 300.0
+ egidl = 0.1
* BSIM4 - Gate Leakage Current Parameters
+ aigbacc = 0.43
+ bigbacc = 0.054
+ cigbacc = 0.075
+ nigbacc = 1.0
+ aigbinv = 0.35
+ bigbinv = 0.03
+ cigbinv = 0.006
+ eigbinv = 1.1
+ nigbinv = 3.0
+ aigc = 0.43
+ bigc = 0.054
+ cigc = 0.075
+ nigc = 1.0
+ aigsd = 0.43
+ bigsd = 0.054
+ cigsd = 0.075
+ dlcig = 0.0
+ poxedge = 1.0
+ pigcd = 1.0
+ ntox = 1.0
+ toxref = 4.23e-9
* Temperature Effects Parameters
+ kt1 = -0.4485
+ kt2 = -0.0075706
+ at = 90900.0
+ ute = -0.33954
+ ua1 = 1.6104e-9
+ ub1 = -5.609e-19
+ uc1 = -1.0858e-10
+ kt1l = 0.0
+ prt = 0.0
* BSIM4 - High Speed RF Model Parameters
+ xrcrg1 = 12.0
+ xrcrg2 = 1.0
+ rbpb = 50.0
+ rbpd = 50.0
+ rbps = 50.0
+ rbdb = 50.0
+ rbsb = 50.0
+ gbmin = 1.0e-12
* BSIM4 - Flicker and Thermal Noise Parameters
+ noia = 1.5e+42
+ noib = 0.0
+ noic = 0.0
+ em = 41000000.0
+ af = 1.0
+ ef = 1.0
+ kf = 0.0
+ ntnoi = 1.0
* BSIM4 - Layout Dependent Parasitic Model Parameters
+ dmcg = 0.0
+ dmcgt = 0.0
+ dmdg = 0.0
+ xgw = 0.0
+ xgl = 0.0
+ ngcon = 1.0
* Diode DC IV Parameters
* BSIM4 - Diode DC IV parameters
+ diomod = 1.0
+ njs = 1.3632
+ jss = 2.1483e-5
+ jsws = 8.04e-10
+ xtis = 5.2
+ bvs = 12.69
+ xjbvs = 1.0
+ ijthsrev = 0.1
+ ijthsfwd = 0.1
* Diode and FET Capacitance Parameters
+ tpb = 0.0020386
+ tpbsw = 0.001246
+ tpbswg = 0.0
+ tcj = 0.0012407
+ tcjsw = 0.00037357
+ tcjswg = 2.0e-12
+ cgdo = 4.86838e-11
+ cgso = 4.86838e-11
+ cgbo = 0.0
+ capmod = 2.0
+ xpart = 0.0
+ cgsl = 8.8560258e-12
+ cgdl = 8.8560258e-12
+ cf = 1.2e-11
+ clc = 1.0e-7
+ cle = 0.6
+ dlc = 9.1275e-9
+ dwc = -2.252e-8
+ vfbcv = -0.14469
+ acde = 0.8
+ moin = 18.13
+ noff = 3.9
+ voffcv = -0.10701
+ ngate = 1.0e+23
+ lwc = 0.0
+ llc = 0.0
+ lwlc = 0.0
+ wlc = 0.0
+ wwc = 0.0
+ wwlc = 0.0
* BSIM4 - FET and Diode capacitance parameters
+ ckappas = 0.6
+ cjs = 0.0006889421079
+ mjs = 0.34629
+ pbs = 0.6587
+ cjsws = 9.2317732e-11
+ mjsws = 0.29781
+ pbsws = 0.7418
+ cjswgs = 2.232631466e-10
+ mjswgs = 0.9274
+ pbswgs = 1.4338
* Stress Parameters
+ saref = 3.0e-6
+ sbref = 3.0e-6
+ wlod = {0+sky130_fd_pr__pfet_01v8__wlod_diff}
+ kvth0 = {0+sky130_fd_pr__pfet_01v8__kvth0_diff}
+ lkvth0 = {0+sky130_fd_pr__pfet_01v8__lkvth0_diff}
+ wkvth0 = {0+sky130_fd_pr__pfet_01v8__wkvth0_diff}
+ pkvth0 = 0.0
+ llodvth = 0.0
+ wlodvth = 1.0
+ stk2 = 0.0
+ lodk2 = 1.0
+ lodeta0 = 1.0
+ ku0 = {0+sky130_fd_pr__pfet_01v8__ku0_diff}
+ lku0 = {0+sky130_fd_pr__pfet_01v8__lku0_diff}
+ wku0 = {0+sky130_fd_pr__pfet_01v8__wku0_diff}
+ pku0 = 0.0
+ llodku0 = 0.0
+ wlodku0 = 1.0
+ kvsat = {0+sky130_fd_pr__pfet_01v8__kvsat_diff}
+ steta0 = 0.0
+ tku0 = 0.0
.model sky130_fd_pr__pfet_01v8__model.2 pmos
* DC IV MOS Parameters
+ lmin = 4e-06 lmax = 8e-06 wmin = 7e-06 wmax = 1.0e-4
+ level = 54.0
+ tnom = 30.0
+ version = 4.5
+ toxm = 4.23e-9
+ xj = 1.5e-7
+ lln = 1.0
+ lwn = 1.0
+ wln = 1.0
+ wwn = 1.0
+ lint = -1.8665e-9
+ ll = 0.0
+ lw = 0.0
+ lwl = 0.0
+ wint = -1.52161e-8
+ wl = 0.0
+ ww = 0.0
+ wwl = 0.0
+ xl = 0.0
+ xw = 0.0
+ mobmod = 0.0
+ binunit = 2.0
+ dwg = -5.722e-9
+ dwb = -1.7864e-8
* BSIM4 - Model Selectors
+ igcmod = 0.0
+ igbmod = 0.0
+ rgatemod = 0.0
+ rbodymod = 1.0
+ trnqsmod = 0.0
+ acnqsmod = 0.0
+ fnoimod = 1.0
+ tnoimod = 1.0
+ permod = 1.0
+ geomod = 0.0
+ rdsmod = 0.0
+ tempmod = 0.0
+ lintnoi = -2.0e-7
+ vfbsdoff = 0.0
+ lambda = 0.0
+ vtl = 0.0
+ lc = 5.0e-9
+ xn = 3.0
+ rnoia = 0.69
+ rnoib = 0.34
+ tnoia = 25.0e+6
+ tnoib = .0e-6
* BSIM4 - Process Parameters
+ epsrox = 3.9
+ toxe = {4.075605e-09+sky130_fd_pr__pfet_01v8__toxe_slope_spectre*(4.075605e-09*(sky130_fd_pr__pfet_01v8__toxe_slope/sqrt(l*w*mult)))}
+ dtox = 0.0
+ ndep = 1.7000000000000000e+17
+ nsd = 1.0e+20
+ rshg = 0.1
+ rsh = 1.0
* Threshold Voltage Parameters
+ vth0 = {-1.05406354699422+sky130_fd_pr__pfet_01v8__vth0_slope_spectre*(sky130_fd_pr__pfet_01v8__vth0_slope/sqrt(l*w*mult))} lvth0 = 3.38817786648298e-8
+ k1 = 0.438111540819447 lk1 = -2.90216224539694e-8
+ k2 = 0.020847100130831 lk2 = 7.50146569218161e-9
+ k3 = -15.845
+ dvt0 = 4.4955
+ dvt1 = 0.294
+ dvt2 = 0.015
+ dvt0w = -4.9772
+ dvt1w = 1147200.0
+ dvt2w = -0.00896
+ w0 = 0.0
+ k3b = 2.0
* NEW BSIM4 Parameters for Level 54
+ phin = 0.0
+ lpe0 = 0.0
+ lpeb = 0.0
+ vbm = -3.0
+ dvtp0 = 0.0
+ dvtp1 = 0.0
* Mobility Parameters
+ vsat = 267287.24109375 lvsat = -0.856197265458503
+ ua = -6.30146567603303e-10 lua = 3.02057342594953e-16
+ ub = 9.25585349996893e-19 lub = 3.77704964625017e-26
+ uc = -7.3185202562779e-11 luc = 5.31066778477869e-17
+ rdsw = 547.88
+ prwb = -0.32348
+ prwg = 0.1376
+ wr = 1.0
+ u0 = 0.010066360390325 lu0 = 2.91527658386293e-9
+ a0 = 1.230540170007 la0 = -4.73590246033636e-7
+ keta = 0.0213585060556696 lketa = -1.29896557155999e-07 pketa = 1.0097419586829e-28
+ a1 = 0.0
+ a2 = 1.199186183375 la2 = -1.59823489552254e-06 wa2 = 1.6940658945086e-21
+ ags = 0.24265758492742 lags = 3.36286567111506e-7
+ b0 = 0.0
+ b1 = 0.0
* BSIM4 - Mobility Parameters
+ eu = 1.67
+ rdswmin = 0.0
+ rdw = 0.0
+ rdwmin = 0.0
+ rsw = 0.0
+ rswmin = 0.0
* Subthreshold Current Parameters
+ voff = {-0.298175649858108+sky130_fd_pr__pfet_01v8__voff_slope_spectre*(sky130_fd_pr__pfet_01v8__voff_slope/sqrt(l*w*mult))} lvoff = 1.15799608654931e-7
+ nfactor = {1.25726101594877+sky130_fd_pr__pfet_01v8__nfactor_slope_spectre*(sky130_fd_pr__pfet_01v8__nfactor_slope/sqrt(l*w*mult))} lnfactor = 1.11151669197867e-6
+ up = 0.0
+ ud = 0.0
+ lp = 1.0
+ tvfbsdoff = 0.0
+ tvoff = 0.0
+ cit = 1.0e-5
+ cdsc = 0.00013
+ cdscb = 0.00078
+ cdscd = 0.0
+ eta0 = 0.08
+ etab = -0.07
+ dsub = 0.56
* BSIM4 - Sub-threshold parameters
+ voffl = 0.0
+ minv = 0.0
* Rout Parameters
+ pclm = -0.430980526189767 lpclm = 3.46164114923705e-06 wpclm = -1.52201232709757e-22 ppclm = 3.40787911055477e-28
+ pdiblc1 = 0.39
+ pdiblc2 = 0.00577216450866307 lpdiblc2 = -2.24818305606042e-8
+ pdiblcb = -0.025
+ drout = 0.56
+ pscbe1 = 800000000.0
+ pscbe2 = 1.01371115566944e-08 lpscbe2 = -6.09097492910795e-15
+ pvag = 0.0
+ delta = 0.01
+ alpha0 = 1.0e-10
+ alpha1 = 1.0e-10
+ beta0 = 3.25291554260215 lbeta0 = 1.11530823389021e-5
* BSIM4 - Rout Parameters
+ fprout = 0.0
+ pdits = 0.0
+ pditsl = 0.0
+ pditsd = 0.0
* BSIM4 - Gate Induced Drain Leakage Model Parameters
+ agidl = 8.43618292846325e-11 lagidl = 1.25163743014221e-16
+ bgidl = 1362332994.7765 lbgidl = -1450.6845681755
+ cgidl = 300.0
+ egidl = 0.1
* BSIM4 - Gate Leakage Current Parameters
+ aigbacc = 0.43
+ bigbacc = 0.054
+ cigbacc = 0.075
+ nigbacc = 1.0
+ aigbinv = 0.35
+ bigbinv = 0.03
+ cigbinv = 0.006
+ eigbinv = 1.1
+ nigbinv = 3.0
+ aigc = 0.43
+ bigc = 0.054
+ cigc = 0.075
+ nigc = 1.0
+ aigsd = 0.43
+ bigsd = 0.054
+ cigsd = 0.075
+ dlcig = 0.0
+ poxedge = 1.0
+ pigcd = 1.0
+ ntox = 1.0
+ toxref = 4.23e-9
* Temperature Effects Parameters
+ kt1 = -0.431675573243395 lkt1 = -1.34658219637922e-7
+ kt2 = 0.00969919300712574 lkt2 = -1.38222812194302e-07 pkt2 = -1.0097419586829e-28
+ at = 87878.4127328975 lat = 0.0241839777220882
+ ute = -0.47361144551513 lute = 1.07307205282715e-6
+ ua1 = 1.22619747730703e-09 lua1 = 3.07505440956101e-15
+ ub1 = -3.0097092736856e-19 lub1 = -2.08040289627965e-24
+ uc1 = -8.842508796601e-11 luc1 = -1.61314534558543e-16
+ kt1l = 0.0
+ prt = 0.0
* BSIM4 - High Speed RF Model Parameters
+ xrcrg1 = 12.0
+ xrcrg2 = 1.0
+ rbpb = 50.0
+ rbpd = 50.0
+ rbps = 50.0
+ rbdb = 50.0
+ rbsb = 50.0
+ gbmin = 1.0e-12
* BSIM4 - Flicker and Thermal Noise Parameters
+ noia = 1.5e+42
+ noib = 0.0
+ noic = 0.0
+ em = 41000000.0
+ af = 1.0
+ ef = 1.0
+ kf = 0.0
+ ntnoi = 1.0
* BSIM4 - Layout Dependent Parasitic Model Parameters
+ dmcg = 0.0
+ dmcgt = 0.0
+ dmdg = 0.0
+ xgw = 0.0
+ xgl = 0.0
+ ngcon = 1.0
* Diode DC IV Parameters
* BSIM4 - Diode DC IV parameters
+ diomod = 1.0
+ njs = 1.3632
+ jss = 2.1483e-5
+ jsws = 8.04e-10
+ xtis = 5.2
+ bvs = 12.69
+ xjbvs = 1.0
+ ijthsrev = 0.1
+ ijthsfwd = 0.1
* Diode and FET Capacitance Parameters
+ tpb = 0.0020386
+ tpbsw = 0.001246
+ tpbswg = 0.0
+ tcj = 0.0012407
+ tcjsw = 0.00037357
+ tcjswg = 2.0e-12
+ cgdo = 4.86838e-11
+ cgso = 4.86838e-11
+ cgbo = 0.0
+ capmod = 2.0
+ xpart = 0.0
+ cgsl = 8.8560258e-12
+ cgdl = 8.8560258e-12
+ cf = 1.2e-11
+ clc = 1.0e-7
+ cle = 0.6
+ dlc = 9.1275e-9
+ dwc = -2.252e-8
+ vfbcv = -0.14469
+ acde = 0.8
+ moin = 18.13
+ noff = 3.9
+ voffcv = -0.10701
+ ngate = 1.0e+23
+ lwc = 0.0
+ llc = 0.0
+ lwlc = 0.0
+ wlc = 0.0
+ wwc = 0.0
+ wwlc = 0.0
* BSIM4 - FET and Diode capacitance parameters
+ ckappas = 0.6
+ cjs = 0.0006889421079
+ mjs = 0.34629
+ pbs = 0.6587
+ cjsws = 9.2317732e-11
+ mjsws = 0.29781
+ pbsws = 0.7418
+ cjswgs = 2.232631466e-10
+ mjswgs = 0.9274
+ pbswgs = 1.4338
* Stress Parameters
+ saref = 3.0e-6
+ sbref = 3.0e-6
+ wlod = {0+sky130_fd_pr__pfet_01v8__wlod_diff}
+ kvth0 = {0+sky130_fd_pr__pfet_01v8__kvth0_diff}
+ lkvth0 = {0+sky130_fd_pr__pfet_01v8__lkvth0_diff}
+ wkvth0 = {0+sky130_fd_pr__pfet_01v8__wkvth0_diff}
+ pkvth0 = 0.0
+ llodvth = 0.0
+ wlodvth = 1.0
+ stk2 = 0.0
+ lodk2 = 1.0
+ lodeta0 = 1.0
+ ku0 = {0+sky130_fd_pr__pfet_01v8__ku0_diff}
+ lku0 = {0+sky130_fd_pr__pfet_01v8__lku0_diff}
+ wku0 = {0+sky130_fd_pr__pfet_01v8__wku0_diff}
+ pku0 = 0.0
+ llodku0 = 0.0
+ wlodku0 = 1.0
+ kvsat = {0+sky130_fd_pr__pfet_01v8__kvsat_diff}
+ steta0 = 0.0
+ tku0 = 0.0
.model sky130_fd_pr__pfet_01v8__model.3 pmos
* DC IV MOS Parameters
+ lmin = 2e-06 lmax = 4e-06 wmin = 7e-06 wmax = 1.0e-4
+ level = 54.0
+ tnom = 30.0
+ version = 4.5
+ toxm = 4.23e-9
+ xj = 1.5e-7
+ lln = 1.0
+ lwn = 1.0
+ wln = 1.0
+ wwn = 1.0
+ lint = -1.8665e-9
+ ll = 0.0
+ lw = 0.0
+ lwl = 0.0
+ wint = -1.52161e-8
+ wl = 0.0
+ ww = 0.0
+ wwl = 0.0
+ xl = 0.0
+ xw = 0.0
+ mobmod = 0.0
+ binunit = 2.0
+ dwg = -5.722e-9
+ dwb = -1.7864e-8
* BSIM4 - Model Selectors
+ igcmod = 0.0
+ igbmod = 0.0
+ rgatemod = 0.0
+ rbodymod = 1.0
+ trnqsmod = 0.0
+ acnqsmod = 0.0
+ fnoimod = 1.0
+ tnoimod = 1.0
+ permod = 1.0
+ geomod = 0.0
+ rdsmod = 0.0
+ tempmod = 0.0
+ lintnoi = -2.0e-7
+ vfbsdoff = 0.0
+ lambda = 0.0
+ vtl = 0.0
+ lc = 5.0e-9
+ xn = 3.0
+ rnoia = 0.69
+ rnoib = 0.34
+ tnoia = 25.0e+6
+ tnoib = .0e-6
* BSIM4 - Process Parameters
+ epsrox = 3.9
+ toxe = {4.075605e-09+sky130_fd_pr__pfet_01v8__toxe_slope_spectre*(4.075605e-09*(sky130_fd_pr__pfet_01v8__toxe_slope/sqrt(l*w*mult)))}
+ dtox = 0.0
+ ndep = 1.7000000000000000e+17
+ nsd = 1.0e+20
+ rshg = 0.1
+ rsh = 1.0
* Threshold Voltage Parameters
+ vth0 = {-1.055275022924+sky130_fd_pr__pfet_01v8__vth0_slope_spectre*(sky130_fd_pr__pfet_01v8__vth0_slope/sqrt(l*w*mult))} lvth0 = 3.87322048235757e-8
+ k1 = 0.424351018216625 lk1 = 2.60718359881974e-8
+ k2 = 0.024934107594989 lk2 = -8.86182096331409e-9
+ k3 = -15.845
+ dvt0 = 4.4955
+ dvt1 = 0.294
+ dvt2 = 0.015
+ dvt0w = -4.9772
+ dvt1w = 1147200.0
+ dvt2w = -0.00896
+ w0 = 0.0
+ k3b = 2.0
* NEW BSIM4 Parameters for Level 54
+ phin = 0.0
+ lpe0 = 0.0
+ lpeb = 0.0
+ vbm = -3.0
+ dvtp0 = 0.0
+ dvtp1 = 0.0
* Mobility Parameters
+ vsat = 53437.5
+ ua = -2.33552580158625e-10 lua = -1.28579909253889e-15
+ ub = 7.69195707129755e-19 lub = 6.63912870467874e-25
+ uc = -8.0640895799503e-11 luc = 8.29572828975356e-17
+ rdsw = 547.88
+ prwb = -0.32348
+ prwg = 0.1376
+ wr = 1.0
+ u0 = 0.0123850632554 lu0 = -6.36819059423241e-9
+ a0 = 1.1425925232195 la0 = -1.21471350318178e-7
+ keta = -0.005531984945704 lketa = -2.22342109475967e-8
+ a1 = 0.0
+ a2 = 0.8
+ ags = 0.117939716445715 lags = 8.35623612841368e-7
+ b0 = 0.0
+ b1 = 0.0
* BSIM4 - Mobility Parameters
+ eu = 1.67
+ rdswmin = 0.0
+ rdw = 0.0
+ rdwmin = 0.0
+ rsw = 0.0
+ rswmin = 0.0
* Subthreshold Current Parameters
+ voff = {-0.276398142045985+sky130_fd_pr__pfet_01v8__voff_slope_spectre*(sky130_fd_pr__pfet_01v8__voff_slope/sqrt(l*w*mult))} lvoff = 2.86082819697777e-8
+ nfactor = {1.5717742327426+sky130_fd_pr__pfet_01v8__nfactor_slope_spectre*(sky130_fd_pr__pfet_01v8__nfactor_slope/sqrt(l*w*mult))} lnfactor = -1.47710253034928e-7
+ up = 0.0
+ ud = 0.0
+ lp = 1.0
+ tvfbsdoff = 0.0
+ tvoff = 0.0
+ cit = 1.0e-5
+ cdsc = 0.00013
+ cdscb = 0.00078
+ cdscd = 0.0
+ eta0 = 0.15964838675 leta0 = -3.18890874427738e-7
+ etab = -0.139629721319197 letab = 2.78778813026474e-7
+ dsub = 0.86055995 ldsub = -1.20336179029335e-6
* BSIM4 - Sub-threshold parameters
+ voffl = 0.0
+ minv = 0.0
* Rout Parameters
+ pclm = 0.464241322871765 lpclm = -1.2258811017163e-7
+ pdiblc1 = 0.39
+ pdiblc2 = -1.9453378406665e-05 lpdiblc2 = 7.06261097247162e-10
+ pdiblcb = -0.025
+ drout = 0.56
+ pscbe1 = 800440951.502645 lpscbe1 = -1.76545208253947
+ pscbe2 = 8.29037304530805e-09 lpscbe2 = 1.30287299130047e-15
+ pvag = 0.0
+ delta = 0.01
+ alpha0 = 1.0e-10
+ alpha1 = 1.0e-10
+ beta0 = 3.9206340066811 lbeta0 = 8.47971588955986e-6
* BSIM4 - Rout Parameters
+ fprout = 0.0
+ pdits = 0.0
+ pditsl = 0.0
+ pditsd = 0.0
* BSIM4 - Gate Induced Drain Leakage Model Parameters
+ agidl = 1.31276341430735e-10 lagidl = -6.2669437444031e-17
+ bgidl = 918242083.1476 lbgidl = 327.33686971321
+ cgidl = 300.0
+ egidl = 0.1
* BSIM4 - Gate Leakage Current Parameters
+ aigbacc = 0.43
+ bigbacc = 0.054
+ cigbacc = 0.075
+ nigbacc = 1.0
+ aigbinv = 0.35
+ bigbinv = 0.03
+ cigbinv = 0.006
+ eigbinv = 1.1
+ nigbinv = 3.0
+ aigc = 0.43
+ bigc = 0.054
+ cigc = 0.075
+ nigc = 1.0
+ aigsd = 0.43
+ bigsd = 0.054
+ cigsd = 0.075
+ dlcig = 0.0
+ poxedge = 1.0
+ pigcd = 1.0
+ ntox = 1.0
+ toxref = 4.23e-9
* Temperature Effects Parameters
+ kt1 = -0.466354778793985 lkt1 = 4.18806003875746e-9
+ kt2 = -0.0057096990819635 lkt2 = -7.6529722443776e-8
+ at = 106881.333549731 lat = -0.0518986434486551
+ ute = -0.176067522322505 lute = -1.1821437140863e-7
+ ua1 = 2.34105191043975e-09 lua1 = -1.38852507456877e-15
+ ub1 = -1.02898979966153e-18 lub1 = 8.34390287342497e-25
+ uc1 = -2.41157429708828e-10 luc1 = 4.50184982244457e-16 puc1 = -7.52316384526264e-37
+ kt1l = 0.0
+ prt = 0.0
* BSIM4 - High Speed RF Model Parameters
+ xrcrg1 = 12.0
+ xrcrg2 = 1.0
+ rbpb = 50.0
+ rbpd = 50.0
+ rbps = 50.0
+ rbdb = 50.0
+ rbsb = 50.0
+ gbmin = 1.0e-12
* BSIM4 - Flicker and Thermal Noise Parameters
+ noia = 1.5e+42
+ noib = 0.0
+ noic = 0.0
+ em = 41000000.0
+ af = 1.0
+ ef = 1.0
+ kf = 0.0
+ ntnoi = 1.0
* BSIM4 - Layout Dependent Parasitic Model Parameters
+ dmcg = 0.0
+ dmcgt = 0.0
+ dmdg = 0.0
+ xgw = 0.0
+ xgl = 0.0
+ ngcon = 1.0
* Diode DC IV Parameters
* BSIM4 - Diode DC IV parameters
+ diomod = 1.0
+ njs = 1.3632
+ jss = 2.1483e-5
+ jsws = 8.04e-10
+ xtis = 5.2
+ bvs = 12.69
+ xjbvs = 1.0
+ ijthsrev = 0.1
+ ijthsfwd = 0.1
* Diode and FET Capacitance Parameters
+ tpb = 0.0020386
+ tpbsw = 0.001246
+ tpbswg = 0.0
+ tcj = 0.0012407
+ tcjsw = 0.00037357
+ tcjswg = 2.0e-12
+ cgdo = 4.86838e-11
+ cgso = 4.86838e-11
+ cgbo = 0.0
+ capmod = 2.0
+ xpart = 0.0
+ cgsl = 8.8560258e-12
+ cgdl = 8.8560258e-12
+ cf = 1.2e-11
+ clc = 1.0e-7
+ cle = 0.6
+ dlc = 9.1275e-9
+ dwc = -2.252e-8
+ vfbcv = -0.14469
+ acde = 0.8
+ moin = 18.13
+ noff = 3.9
+ voffcv = -0.10701
+ ngate = 1.0e+23
+ lwc = 0.0
+ llc = 0.0
+ lwlc = 0.0
+ wlc = 0.0
+ wwc = 0.0
+ wwlc = 0.0
* BSIM4 - FET and Diode capacitance parameters
+ ckappas = 0.6
+ cjs = 0.0006889421079
+ mjs = 0.34629
+ pbs = 0.6587
+ cjsws = 9.2317732e-11
+ mjsws = 0.29781
+ pbsws = 0.7418
+ cjswgs = 2.232631466e-10
+ mjswgs = 0.9274
+ pbswgs = 1.4338
* Stress Parameters
+ saref = 3.0e-6
+ sbref = 3.0e-6
+ wlod = {0+sky130_fd_pr__pfet_01v8__wlod_diff}
+ kvth0 = {0+sky130_fd_pr__pfet_01v8__kvth0_diff}
+ lkvth0 = {0+sky130_fd_pr__pfet_01v8__lkvth0_diff}
+ wkvth0 = {0+sky130_fd_pr__pfet_01v8__wkvth0_diff}
+ pkvth0 = 0.0
+ llodvth = 0.0
+ wlodvth = 1.0
+ stk2 = 0.0
+ lodk2 = 1.0
+ lodeta0 = 1.0
+ ku0 = {0+sky130_fd_pr__pfet_01v8__ku0_diff}
+ lku0 = {0+sky130_fd_pr__pfet_01v8__lku0_diff}
+ wku0 = {0+sky130_fd_pr__pfet_01v8__wku0_diff}
+ pku0 = 0.0
+ llodku0 = 0.0
+ wlodku0 = 1.0
+ kvsat = {0+sky130_fd_pr__pfet_01v8__kvsat_diff}
+ steta0 = 0.0
+ tku0 = 0.0
.model sky130_fd_pr__pfet_01v8__model.4 pmos
* DC IV MOS Parameters
+ lmin = 1e-06 lmax = 2e-06 wmin = 7e-06 wmax = 1.0e-4
+ level = 54.0
+ tnom = 30.0
+ version = 4.5
+ toxm = 4.23e-9
+ xj = 1.5e-7
+ lln = 1.0
+ lwn = 1.0
+ wln = 1.0
+ wwn = 1.0
+ lint = -1.8665e-9
+ ll = 0.0
+ lw = 0.0
+ lwl = 0.0
+ wint = -1.52161e-8
+ wl = 0.0
+ ww = 0.0
+ wwl = 0.0
+ xl = 0.0
+ xw = 0.0
+ mobmod = 0.0
+ binunit = 2.0
+ dwg = -5.722e-9
+ dwb = -1.7864e-8
* BSIM4 - Model Selectors
+ igcmod = 0.0
+ igbmod = 0.0
+ rgatemod = 0.0
+ rbodymod = 1.0
+ trnqsmod = 0.0
+ acnqsmod = 0.0
+ fnoimod = 1.0
+ tnoimod = 1.0
+ permod = 1.0
+ geomod = 0.0
+ rdsmod = 0.0
+ tempmod = 0.0
+ lintnoi = -2.0e-7
+ vfbsdoff = 0.0
+ lambda = 0.0
+ vtl = 0.0
+ lc = 5.0e-9
+ xn = 3.0
+ rnoia = 0.69
+ rnoib = 0.34
+ tnoia = 25.0e+6
+ tnoib = .0e-6
* BSIM4 - Process Parameters
+ epsrox = 3.9
+ toxe = {4.075605e-09+sky130_fd_pr__pfet_01v8__toxe_slope_spectre*(4.075605e-09*(sky130_fd_pr__pfet_01v8__toxe_slope/sqrt(l*w*mult)))}
+ dtox = 0.0
+ ndep = 1.7000000000000000e+17
+ nsd = 1.0e+20
+ rshg = 0.1
+ rsh = 1.0
* Threshold Voltage Parameters
+ vth0 = {-1.0498109691552+sky130_fd_pr__pfet_01v8__vth0_slope_spectre*(sky130_fd_pr__pfet_01v8__vth0_slope/sqrt(l*w*mult))} lvth0 = 2.77836999732568e-8
+ k1 = 0.35649664992175 lk1 = 1.62033872934792e-7
+ k2 = 0.052734565514376 lk2 = -6.45665159115012e-08 wk2 = 5.29395592033938e-23 pk2 = 5.04870979341448e-29
+ k3 = -15.845
+ dvt0 = 4.4955
+ dvt1 = 0.294
+ dvt2 = 0.015
+ dvt0w = -4.9772
+ dvt1w = 1147200.0
+ dvt2w = -0.00896
+ w0 = 0.0
+ k3b = 2.0
* NEW BSIM4 Parameters for Level 54
+ phin = 0.0
+ lpe0 = 0.0
+ lpeb = 0.0
+ vbm = -3.0
+ dvtp0 = 0.0
+ dvtp1 = 0.0
* Mobility Parameters
+ vsat = 35558.5059375 lvsat = 0.0358247304098353
+ ua = -7.5086450953842e-10 lua = -2.49244108346923e-16
+ ub = 1.01442260279428e-18 lub = 1.72543647137309e-25
+ uc = -4.2898643670165e-11 luc = 7.33188681166072e-18
+ rdsw = 547.88
+ prwb = -0.32348
+ prwg = 0.1376
+ wr = 1.0
+ u0 = 0.0096799593629 lu0 = -9.4788465640171e-10
+ a0 = 1.25970100231 la0 = -3.56125474451623e-7
+ keta = -0.006915534800507 lketa = -1.94619464463827e-8
+ a1 = 0.0
+ a2 = 0.6996267 la2 = 2.011212935289e-7
+ ags = 0.41242641448365 lags = 2.45550897921723e-7
+ b0 = 0.0
+ b1 = 0.0
* BSIM4 - Mobility Parameters
+ eu = 1.67
+ rdswmin = 0.0
+ rdw = 0.0
+ rdwmin = 0.0
+ rsw = 0.0
+ rswmin = 0.0
* Subthreshold Current Parameters
+ voff = {-0.2631120370841+sky130_fd_pr__pfet_01v8__voff_slope_spectre*(sky130_fd_pr__pfet_01v8__voff_slope/sqrt(l*w*mult))} lvoff = 1.986475016185e-9
+ nfactor = {1.3371515750889+sky130_fd_pr__pfet_01v8__nfactor_slope_spectre*(sky130_fd_pr__pfet_01v8__nfactor_slope/sqrt(l*w*mult))} lnfactor = 3.22410908653493e-7
+ up = 0.0
+ ud = 0.0
+ lp = 1.0
+ tvfbsdoff = 0.0
+ tvoff = 0.0
+ cit = 1.0e-5
+ cdsc = 0.00013
+ cdscb = 0.00078
+ cdscd = 0.0
+ eta0 = -0.4908273035 leta0 = 9.84488731823965e-07 weta0 = -1.91905902112302e-22 peta0 = -2.16147888030557e-28
+ etab = 7.4649203674932 letab = -1.49587091500798e-05 wetab = -1.00585162486448e-21 petab = -1.95479732313767e-27
+ dsub = 0.26
* BSIM4 - Sub-threshold parameters
+ voffl = 0.0
+ minv = 0.0
* Rout Parameters
+ pclm = 0.18780596974631 lpclm = 4.31314529252497e-7
+ pdiblc1 = 0.40816306053883 lpdiblc1 = -3.63939237826515e-8
+ pdiblc2 = 0.00023567653097224 lpdiblc2 = 1.95048878537641e-10
+ pdiblcb = -0.0493458950609527 lpdiblcb = 4.8782673348168e-8
+ drout = 0.40383213350502 ldrout = 3.12918707635586e-7
+ pscbe1 = 799118096.99471 lpscbe1 = 0.885195149208812
+ pscbe2 = 8.9456890419886e-09 lpscbe2 = -1.02052966762473e-17
+ pvag = 0.0
+ delta = 0.01
+ alpha0 = -4.4813805135721e-05 lalpha0 = 8.97951005793136e-11 walpha0 = -1.59706862414257e-26 palpha0 = -4.37929009805622e-32
+ alpha1 = 2.003733e-10 lalpha1 = -2.011212935289e-16
+ beta0 = -13.670975394132 lbeta0 = 4.37286041690793e-5
* BSIM4 - Rout Parameters
+ fprout = 0.0
+ pdits = 0.0
+ pditsl = 0.0
+ pditsd = 0.0
* BSIM4 - Gate Induced Drain Leakage Model Parameters
+ agidl = 1.0e-10
+ bgidl = 804510852.3414 lbgidl = 555.223890010209
+ cgidl = 300.0
+ egidl = 0.1
* BSIM4 - Gate Leakage Current Parameters
+ aigbacc = 0.43
+ bigbacc = 0.054
+ cigbacc = 0.075
+ nigbacc = 1.0
+ aigbinv = 0.35
+ bigbinv = 0.03
+ cigbinv = 0.006
+ eigbinv = 1.1
+ nigbinv = 3.0
+ aigc = 0.43
+ bigc = 0.054
+ cigc = 0.075
+ nigc = 1.0
+ aigsd = 0.43