* Copyright 2020 The SkyWater PDK Authors
*
* Licensed under the Apache License, Version 2.0 (the "License");
* you may not use this file except in compliance with the License.
* You may obtain a copy of the License at
*
*     https://www.apache.org/licenses/LICENSE-2.0
*
* Unless required by applicable law or agreed to in writing, software
* distributed under the License is distributed on an "AS IS" BASIS,
* WITHOUT WARRANTIES OR CONDITIONS OF ANY KIND, either express or implied.
* See the License for the specific language governing permissions and
* limitations under the License.

* SKY130 Spice File.
.param sky130_fd_pr__pfet_01v8__toxe_slope_spectre = 0.0
.param sky130_fd_pr__pfet_01v8__vth0_slope_spectre = 0.0
.param sky130_fd_pr__pfet_01v8__voff_slope_spectre = 0.0
.param sky130_fd_pr__pfet_01v8__nfactor_slope_spectre = 0.0
* statistics {
*   process {
*   }
*   mismatch {
*     vary sky130_fd_pr__pfet_01v8__toxe_slope_spectre dist=gauss std = 1.0
*     vary sky130_fd_pr__pfet_01v8__vth0_slope_spectre dist=gauss std = 1.0
*     vary sky130_fd_pr__pfet_01v8__voff_slope_spectre dist=gauss std = 1.0
*     vary sky130_fd_pr__pfet_01v8__nfactor_slope_spectre dist=gauss std = 1.0
*   }
* }
.subckt  sky130_fd_pr__pfet_01v8 d g s b
+ 
.param  l = 1 w = 1 ad = 0 as = 0 pd = 0 ps = 0 nrd = 0 nrs = 0 sa = 0 sb = 0 sd = 0 mult = 1 nf = 1.0
msky130_fd_pr__pfet_01v8 d g s b sky130_fd_pr__pfet_01v8__model l = {l} w = {w} ad = {ad} as = {as} pd = {pd} ps = {ps} nrd = {nrd} nrs = {nrs} sa = {sa} sb = {sb} sd = {sd} nf = {nf}
.model sky130_fd_pr__pfet_01v8__model.0 pmos
* DC IV MOS Parameters
+ lmin = 1.45e-07 lmax = 1.55e-07 wmin = 1.255e-06 wmax = 1.265e-6
+ level = 54.0
+ tnom = 30.0
+ version = 4.5
+ toxm = 4.23e-9
+ xj = 1.5e-7
+ lln = 1.0
+ lwn = 1.0
+ wln = 1.0
+ wwn = 1.0
+ lint = {-1.3994e-008+sky130_fd_pr__pfet_01v8__lint_diff}
+ ll = 0.0
+ lw = 0.0
+ lwl = 0.0
+ wint = {7.3039e-009+sky130_fd_pr__pfet_01v8__wint_diff}
+ wl = 0.0
+ ww = 0.0
+ wwl = 0.0
+ xl = 0.0
+ xw = 0.0
+ mobmod = 0.0
+ binunit = 2.0
+ dwg = -5.722e-9
+ dwb = -1.7864e-8
* BSIM4 - Model Selectors
+ igcmod = 0.0
+ igbmod = 0.0
+ rgatemod = 0.0
+ rbodymod = 1.0
+ trnqsmod = 0.0
+ acnqsmod = 0.0
+ fnoimod = 1.0
+ tnoimod = 1.0
+ permod = 1.0
+ geomod = 0.0
+ rdsmod = 0.0
+ tempmod = 0.0
+ lintnoi = -2.0e-7
+ vfbsdoff = 0.0
+ lambda = 0.0
+ vtl = 0.0
+ lc = 5.0e-9
+ xn = 3.0
+ rnoia = 0.69
+ rnoib = 0.34
+ tnoia = 25.0e+6
+ tnoib = .0e-6
* BSIM4 - Process Parameters
+ epsrox = 3.9
+ toxe = {4.23e-009*sky130_fd_pr__pfet_01v8__toxe_mult+sky130_fd_pr__pfet_01v8__toxe_slope_spectre*(4.23e-09*sky130_fd_pr__pfet_01v8__toxe_mult*(sky130_fd_pr__pfet_01v8__toxe_slope1/sqrt(l*w*mult)))}
+ dtox = 0.0
+ ndep = 1.7e+17
+ nsd = 1.0e+20
+ rshg = 0.1
+ rsh = {1*sky130_fd_pr__pfet_01v8__rshp_mult}
* Threshold Voltage Parameters
+ vth0 = {-1.0652+sky130_fd_pr__pfet_01v8__vth0_diff_0+sky130_fd_pr__pfet_01v8__vth0_slope_spectre*(sky130_fd_pr__pfet_01v8__vth0_slope1/sqrt(l*w*mult))}
+ k1 = 1.3152469
+ k2 = {-0.27798063+sky130_fd_pr__pfet_01v8__k2_diff_0}
+ k3 = -15.845
+ dvt0 = 4.4955
+ dvt1 = 0.294
+ dvt2 = 0.015
+ dvt0w = -4.9772
+ dvt1w = 1147200.0
+ dvt2w = -0.00896
+ w0 = 0.0
+ k3b = 2.0
* NEW BSIM4 Parameters for Level 54
+ phin = 0.0
+ lpe0 = 0.0
+ lpeb = 0.0
+ vbm = -3.0
+ dvtp0 = 0.0
+ dvtp1 = 0.0
* Mobility Parameters
+ vsat = {68611+sky130_fd_pr__pfet_01v8__vsat_diff_0}
+ ua = {-2.4423e-009+sky130_fd_pr__pfet_01v8__ua_diff_0}
+ ub = {2.0699352e-018+sky130_fd_pr__pfet_01v8__ub_diff_0}
+ uc = 1.6133739e-13
+ rdsw = {547.88+sky130_fd_pr__pfet_01v8__rdsw_diff_0}
+ prwb = -0.32348
+ prwg = 0.1376
+ wr = 1.0
+ u0 = {0.0025134+sky130_fd_pr__pfet_01v8__u0_diff_0}
+ a0 = {0.91285081+sky130_fd_pr__pfet_01v8__a0_diff_0}
+ keta = {-0.020464881+sky130_fd_pr__pfet_01v8__keta_diff_0}
+ a1 = 0.0
+ a2 = 0.87366558
+ ags = {1.25+sky130_fd_pr__pfet_01v8__ags_diff_0}
+ b0 = {0+sky130_fd_pr__pfet_01v8__b0_diff_0}
+ b1 = {0+sky130_fd_pr__pfet_01v8__b1_diff_0}
* BSIM4 - Mobility Parameters
+ eu = 1.67
+ rdswmin = 0.0
+ rdw = 0.0
+ rdwmin = 0.0
+ rsw = 0.0
+ rswmin = 0.0
* Subthreshold Current Parameters
+ voff = {-0.25076476+sky130_fd_pr__pfet_01v8__voff_diff_0+sky130_fd_pr__pfet_01v8__voff_slope_spectre*(sky130_fd_pr__pfet_01v8__voff_slope1/sqrt(l*w*mult))}
+ nfactor = {1.9+sky130_fd_pr__pfet_01v8__nfactor_diff_0+sky130_fd_pr__pfet_01v8__nfactor_slope_spectre*(sky130_fd_pr__pfet_01v8__nfactor_slope1/sqrt(l*w*mult))}
+ up = 0.0
+ ud = 0.0
+ lp = 1.0
+ tvfbsdoff = 0.0
+ tvoff = {0+sky130_fd_pr__pfet_01v8__tvoff_diff_0}
+ cit = 1.0e-5
+ cdsc = 0.00013
+ cdscb = 0.00078
+ cdscd = 0.0
+ eta0 = {0.21064695+sky130_fd_pr__pfet_01v8__eta0_diff_0}
+ etab = -0.014728557
+ dsub = 0.26
* BSIM4 - Sub-threshold parameters
+ voffl = 0.0
+ minv = 0.0
* Rout Parameters
+ pclm = {0.61630162+sky130_fd_pr__pfet_01v8__pclm_diff_0}
+ pdiblc1 = 0.14215108
+ pdiblc2 = 0.0026509038
+ pdiblcb = -0.15188768
+ drout = 1.0
+ pscbe1 = 8.0e+8
+ pscbe2 = 9.1788025e-9
+ pvag = 0.0
+ delta = 0.01
+ alpha0 = 1.0e-10
+ alpha1 = 1.0e-10
+ beta0 = 7.9381315
* BSIM4 - Rout Parameters
+ fprout = 0.0
+ pdits = {0+sky130_fd_pr__pfet_01v8__pdits_diff_0}
+ pditsl = 0.0
+ pditsd = {0+sky130_fd_pr__pfet_01v8__pditsd_diff_0}
* BSIM4 - Gate Induced Drain Leakage Model Parameters
+ agidl = {4.0078966e-010+sky130_fd_pr__pfet_01v8__agidl_diff_0}
+ bgidl = {1e009+sky130_fd_pr__pfet_01v8__bgidl_diff_0}
+ cgidl = {300+sky130_fd_pr__pfet_01v8__cgidl_diff_0}
+ egidl = 0.1
* BSIM4 - Gate Leakage Current Parameters
+ aigbacc = 0.43
+ bigbacc = 0.054
+ cigbacc = 0.075
+ nigbacc = 1.0
+ aigbinv = 0.35
+ bigbinv = 0.03
+ cigbinv = 0.006
+ eigbinv = 1.1
+ nigbinv = 3.0
+ aigc = 0.43
+ bigc = 0.054
+ cigc = 0.075
+ nigc = 1.0
+ aigsd = 0.43
+ bigsd = 0.054
+ cigsd = 0.075
+ dlcig = 0.0
+ poxedge = 1.0
+ pigcd = 1.0
+ ntox = 1.0
+ toxref = 4.23e-9
* Temperature Effects Parameters
+ kt1 = {-0.70976+sky130_fd_pr__pfet_01v8__kt1_diff_0}
+ kt2 = -0.12
+ at = 50942.0
+ ute = -0.21243
+ ua1 = 1.8303e-10
+ ub1 = 3.6891e-19
+ uc1 = 6.4484e-12
+ kt1l = 0.0
+ prt = 0.0
* BSIM4 - High Speed RF Model Parameters
+ xrcrg1 = 12.0
+ xrcrg2 = 1.0
+ rbpb = 50.0
+ rbpd = 50.0
+ rbps = 50.0
+ rbdb = 50.0
+ rbsb = 50.0
+ gbmin = 1.0e-12
* BSIM4 - Flicker and Thermal Noise Parameters
+ noia = 1.5e+42
+ noib = 0.0
+ noic = 0.0
+ em = 4.1000000e+7
+ af = 1.0
+ ef = 1.0
+ kf = 0.0
+ ntnoi = 1.0
* BSIM4 - Layout Dependent Parasitic Model Parameters
+ dmcg = 0.0
+ dmcgt = 0.0
+ dmdg = 0.0
+ xgw = 0.0
+ xgl = 0.0
+ ngcon = 1.0
* Diode DC IV Parameters
* BSIM4 - Diode DC IV parameters
+ diomod = 1.0
+ njs = 1.3632
+ jss = 2.1483e-5
+ jsws = 8.040000000000001e-10
+ xtis = 5.2
+ bvs = 12.69
+ xjbvs = 1.0
+ ijthsrev = 0.1
+ ijthsfwd = 0.1
* Diode and FET Capacitance Parameters
+ tpb = 0.0020386
+ tpbsw = 0.001246
+ tpbswg = 0.0
+ tcj = 0.0012407
+ tcjsw = 0.00037357
+ tcjswg = 2.0e-12
+ cgdo = {5.5e-11*sky130_fd_pr__pfet_01v8__overlap_mult}
+ cgso = {5.5e-11*sky130_fd_pr__pfet_01v8__overlap_mult}
+ cgbo = 0.0
+ capmod = 2.0
+ xpart = 0.0
+ cgsl = {1.0005e-011*sky130_fd_pr__pfet_01v8__overlap_mult}
+ cgdl = {1.0005e-011*sky130_fd_pr__pfet_01v8__overlap_mult}
+ cf = 1.2e-11
+ clc = 1.0e-7
+ cle = 0.6
+ dlc = {-3e-09+sky130_fd_pr__pfet_01v8__dlc_diff+sky130_fd_pr__pfet_01v8__dlc_rotweak}
+ dwc = {0+sky130_fd_pr__pfet_01v8__dwc_diff}
+ vfbcv = -0.14469
+ acde = 0.8
+ moin = 18.13
+ noff = 3.9
+ voffcv = -0.10701
+ ngate = 1.0e+23
+ lwc = 0.0
+ llc = 0.0
+ lwlc = 0.0
+ wlc = 0.0
+ wwc = 0.0
+ wwlc = 0.0
* BSIM4 - FET and Diode capacitance parameters
+ ckappas = 0.6
+ cjs = {0.00074079*sky130_fd_pr__pfet_01v8__ajunction_mult}
+ mjs = 0.34629
+ pbs = 0.6587
+ cjsws = {9.88e-011*sky130_fd_pr__pfet_01v8__pjunction_mult}
+ mjsws = 0.29781
+ pbsws = 0.7418
+ cjswgs = {2.3894e-010*sky130_fd_pr__pfet_01v8__pjunction_mult}
+ mjswgs = 0.9274
+ pbswgs = 1.4338
* Stress Parameters
+ saref = 1.04e-6
+ sbref = 1.04e-6
+ wlod = {0+sky130_fd_pr__pfet_01v8__wlod_diff}
+ kvth0 = {0+sky130_fd_pr__pfet_01v8__kvth0_diff}
+ lkvth0 = {0+sky130_fd_pr__pfet_01v8__lkvth0_diff}
+ wkvth0 = {0+sky130_fd_pr__pfet_01v8__wkvth0_diff}
+ pkvth0 = 0.0
+ llodvth = 0.0
+ wlodvth = 1.0
+ stk2 = 0.0
+ lodk2 = 1.0
+ lodeta0 = 1.0
+ ku0 = {0+sky130_fd_pr__pfet_01v8__ku0_diff}
+ lku0 = {0+sky130_fd_pr__pfet_01v8__lku0_diff}
+ wku0 = {0+sky130_fd_pr__pfet_01v8__wku0_diff}
+ pku0 = 0.0
+ llodku0 = 0.0
+ wlodku0 = 1.0
+ kvsat = {0+sky130_fd_pr__pfet_01v8__kvsat_diff}
+ steta0 = 0.0
+ tku0 = 0.0
.model sky130_fd_pr__pfet_01v8__model.1 pmos
* DC IV MOS Parameters
+ lmin = 1.45e-07 lmax = 1.55e-07 wmin = 1.675e-06 wmax = 1.685e-6
+ level = 54.0
+ tnom = 30.0
+ version = 4.5
+ toxm = 4.23e-9
+ xj = 1.5e-7
+ lln = 1.0
+ lwn = 1.0
+ wln = 1.0
+ wwn = 1.0
+ lint = {-1.3994e-008+sky130_fd_pr__pfet_01v8__lint_diff}
+ ll = 0.0
+ lw = 0.0
+ lwl = 0.0
+ wint = {7.3039e-009+sky130_fd_pr__pfet_01v8__wint_diff}
+ wl = 0.0
+ ww = 0.0
+ wwl = 0.0
+ xl = 0.0
+ xw = 0.0
+ mobmod = 0.0
+ binunit = 2.0
+ dwg = -5.722e-9
+ dwb = -1.7864e-8
* BSIM4 - Model Selectors
+ igcmod = 0.0
+ igbmod = 0.0
+ rgatemod = 0.0
+ rbodymod = 1.0
+ trnqsmod = 0.0
+ acnqsmod = 0.0
+ fnoimod = 1.0
+ tnoimod = 1.0
+ permod = 1.0
+ geomod = 0.0
+ rdsmod = 0.0
+ tempmod = 0.0
+ lintnoi = -2.0e-7
+ vfbsdoff = 0.0
+ lambda = 0.0
+ vtl = 0.0
+ lc = 5.0e-9
+ xn = 3.0
+ rnoia = 0.69
+ rnoib = 0.34
+ tnoia = 25.0e+6
+ tnoib = .0e-6
* BSIM4 - Process Parameters
+ epsrox = 3.9
+ toxe = {4.23e-009*sky130_fd_pr__pfet_01v8__toxe_mult+sky130_fd_pr__pfet_01v8__toxe_slope_spectre*(4.23e-09*sky130_fd_pr__pfet_01v8__toxe_mult*(sky130_fd_pr__pfet_01v8__toxe_slope1/sqrt(l*w*mult)))}
+ dtox = 0.0
+ ndep = 1.7e+17
+ nsd = 1.0e+20
+ rshg = 0.1
+ rsh = {1*sky130_fd_pr__pfet_01v8__rshp_mult}
* Threshold Voltage Parameters
+ vth0 = {-1.02+sky130_fd_pr__pfet_01v8__vth0_diff_1+sky130_fd_pr__pfet_01v8__vth0_slope_spectre*(sky130_fd_pr__pfet_01v8__vth0_slope1/sqrt(l*w*mult))}
+ k1 = 1.3255051
+ k2 = {-0.28016116+sky130_fd_pr__pfet_01v8__k2_diff_1}
+ k3 = -15.845
+ dvt0 = 4.4955
+ dvt1 = 0.294
+ dvt2 = 0.015
+ dvt0w = -4.9772
+ dvt1w = 1147200.0
+ dvt2w = -0.00896
+ w0 = 0.0
+ k3b = 2.0
* NEW BSIM4 Parameters for Level 54
+ phin = 0.0
+ lpe0 = 0.0
+ lpeb = 0.0
+ vbm = -3.0
+ dvtp0 = 0.0
+ dvtp1 = 0.0
* Mobility Parameters
+ vsat = {59524+sky130_fd_pr__pfet_01v8__vsat_diff_1}
+ ua = {-2.4816e-009+sky130_fd_pr__pfet_01v8__ua_diff_1}
+ ub = {2.1055982e-018+sky130_fd_pr__pfet_01v8__ub_diff_1}
+ uc = 9.1597053e-14
+ rdsw = {547.88+sky130_fd_pr__pfet_01v8__rdsw_diff_1}
+ prwb = -0.32348
+ prwg = 0.1376
+ wr = 1.0
+ u0 = {0.0024424+sky130_fd_pr__pfet_01v8__u0_diff_1}
+ a0 = {0.80890904+sky130_fd_pr__pfet_01v8__a0_diff_1}
+ keta = {0.027840733+sky130_fd_pr__pfet_01v8__keta_diff_1}
+ a1 = 0.0
+ a2 = 0.9995
+ ags = {1.25+sky130_fd_pr__pfet_01v8__ags_diff_1}
+ b0 = {0+sky130_fd_pr__pfet_01v8__b0_diff_1}
+ b1 = {0+sky130_fd_pr__pfet_01v8__b1_diff_1}
* BSIM4 - Mobility Parameters
+ eu = 1.67
+ rdswmin = 0.0
+ rdw = 0.0
+ rdwmin = 0.0
+ rsw = 0.0
+ rswmin = 0.0
* Subthreshold Current Parameters
+ voff = {-0.27372667+sky130_fd_pr__pfet_01v8__voff_diff_1+sky130_fd_pr__pfet_01v8__voff_slope_spectre*(sky130_fd_pr__pfet_01v8__voff_slope1/sqrt(l*w*mult))}
+ nfactor = {1.9+sky130_fd_pr__pfet_01v8__nfactor_diff_1+sky130_fd_pr__pfet_01v8__nfactor_slope_spectre*(sky130_fd_pr__pfet_01v8__nfactor_slope1/sqrt(l*w*mult))}
+ up = 0.0
+ ud = 0.0
+ lp = 1.0
+ tvfbsdoff = 0.0
+ tvoff = {0+sky130_fd_pr__pfet_01v8__tvoff_diff_1}
+ cit = 1.0e-5
+ cdsc = 0.00013
+ cdscb = 0.00078
+ cdscd = 0.0
+ eta0 = {0.3010182+sky130_fd_pr__pfet_01v8__eta0_diff_1}
+ etab = -0.035338434
+ dsub = 0.26
* BSIM4 - Sub-threshold parameters
+ voffl = 0.0
+ minv = 0.0
* Rout Parameters
+ pclm = {0.47998966+sky130_fd_pr__pfet_01v8__pclm_diff_1}
+ pdiblc1 = 0.0195
+ pdiblc2 = 0.00043
+ pdiblcb = -2.4222865e-5
+ drout = 1.0
+ pscbe1 = 8.0e+8
+ pscbe2 = 9.3226724e-9
+ pvag = 0.0
+ delta = 0.01
+ alpha0 = 1.0e-10
+ alpha1 = 1.0e-10
+ beta0 = 7.537679
* BSIM4 - Rout Parameters
+ fprout = 0.0
+ pdits = {0+sky130_fd_pr__pfet_01v8__pdits_diff_1}
+ pditsl = 0.0
+ pditsd = {0+sky130_fd_pr__pfet_01v8__pditsd_diff_1}
* BSIM4 - Gate Induced Drain Leakage Model Parameters
+ agidl = {2.8211658e-010+sky130_fd_pr__pfet_01v8__agidl_diff_1}
+ bgidl = {1e009+sky130_fd_pr__pfet_01v8__bgidl_diff_1}
+ cgidl = {300+sky130_fd_pr__pfet_01v8__cgidl_diff_1}
+ egidl = 0.1
* BSIM4 - Gate Leakage Current Parameters
+ aigbacc = 0.43
+ bigbacc = 0.054
+ cigbacc = 0.075
+ nigbacc = 1.0
+ aigbinv = 0.35
+ bigbinv = 0.03
+ cigbinv = 0.006
+ eigbinv = 1.1
+ nigbinv = 3.0
+ aigc = 0.43
+ bigc = 0.054
+ cigc = 0.075
+ nigc = 1.0
+ aigsd = 0.43
+ bigsd = 0.054
+ cigsd = 0.075
+ dlcig = 0.0
+ poxedge = 1.0
+ pigcd = 1.0
+ ntox = 1.0
+ toxref = 4.23e-9
* Temperature Effects Parameters
+ kt1 = {-0.70976+sky130_fd_pr__pfet_01v8__kt1_diff_1}
+ kt2 = -0.12
+ at = 39225.0
+ ute = -0.21243
+ ua1 = 1.6473e-10
+ ub1 = 3.6891e-19
+ uc1 = 6.4484e-12
+ kt1l = 0.0
+ prt = 0.0
* BSIM4 - High Speed RF Model Parameters
+ xrcrg1 = 12.0
+ xrcrg2 = 1.0
+ rbpb = 50.0
+ rbpd = 50.0
+ rbps = 50.0
+ rbdb = 50.0
+ rbsb = 50.0
+ gbmin = 1.0e-12
* BSIM4 - Flicker and Thermal Noise Parameters
+ noia = 1.5e+42
+ noib = 0.0
+ noic = 0.0
+ em = 4.1000000e+7
+ af = 1.0
+ ef = 1.0
+ kf = 0.0
+ ntnoi = 1.0
* BSIM4 - Layout Dependent Parasitic Model Parameters
+ dmcg = 0.0
+ dmcgt = 0.0
+ dmdg = 0.0
+ xgw = 0.0
+ xgl = 0.0
+ ngcon = 1.0
* Diode DC IV Parameters
* BSIM4 - Diode DC IV parameters
+ diomod = 1.0
+ njs = 1.3632
+ jss = 2.1483e-5
+ jsws = 8.040000000000001e-10
+ xtis = 5.2
+ bvs = 12.69
+ xjbvs = 1.0
+ ijthsrev = 0.1
+ ijthsfwd = 0.1
* Diode and FET Capacitance Parameters
+ tpb = 0.0020386
+ tpbsw = 0.001246
+ tpbswg = 0.0
+ tcj = 0.0012407
+ tcjsw = 0.00037357
+ tcjswg = 2.0e-12
+ cgdo = {5.5e-11*sky130_fd_pr__pfet_01v8__overlap_mult}
+ cgso = {5.5e-11*sky130_fd_pr__pfet_01v8__overlap_mult}
+ cgbo = 0.0
+ capmod = 2.0
+ xpart = 0.0
+ cgsl = {1.0005e-011*sky130_fd_pr__pfet_01v8__overlap_mult}
+ cgdl = {1.0005e-011*sky130_fd_pr__pfet_01v8__overlap_mult}
+ cf = 1.2e-11
+ clc = 1.0e-7
+ cle = 0.6
+ dlc = {-3e-09+sky130_fd_pr__pfet_01v8__dlc_diff+sky130_fd_pr__pfet_01v8__dlc_rotweak}
+ dwc = {0+sky130_fd_pr__pfet_01v8__dwc_diff}
+ vfbcv = -0.14469
+ acde = 0.8
+ moin = 18.13
+ noff = 3.9
+ voffcv = -0.10701
+ ngate = 1.0e+23
+ lwc = 0.0
+ llc = 0.0
+ lwlc = 0.0
+ wlc = 0.0
+ wwc = 0.0
+ wwlc = 0.0
* BSIM4 - FET and Diode capacitance parameters
+ ckappas = 0.6
+ cjs = {0.00074079*sky130_fd_pr__pfet_01v8__ajunction_mult}
+ mjs = 0.34629
+ pbs = 0.6587
+ cjsws = {9.88e-011*sky130_fd_pr__pfet_01v8__pjunction_mult}
+ mjsws = 0.29781
+ pbsws = 0.7418
+ cjswgs = {2.3894e-010*sky130_fd_pr__pfet_01v8__pjunction_mult}
+ mjswgs = 0.9274
+ pbswgs = 1.4338
* Stress Parameters
+ saref = 1.04e-6
+ sbref = 1.04e-6
+ wlod = {0+sky130_fd_pr__pfet_01v8__wlod_diff}
+ kvth0 = {0+sky130_fd_pr__pfet_01v8__kvth0_diff}
+ lkvth0 = {0+sky130_fd_pr__pfet_01v8__lkvth0_diff}
+ wkvth0 = {0+sky130_fd_pr__pfet_01v8__wkvth0_diff}
+ pkvth0 = 0.0
+ llodvth = 0.0
+ wlodvth = 1.0
+ stk2 = 0.0
+ lodk2 = 1.0
+ lodeta0 = 1.0
+ ku0 = {0+sky130_fd_pr__pfet_01v8__ku0_diff}
+ lku0 = {0+sky130_fd_pr__pfet_01v8__lku0_diff}
+ wku0 = {0+sky130_fd_pr__pfet_01v8__wku0_diff}
+ pku0 = 0.0
+ llodku0 = 0.0
+ wlodku0 = 1.0
+ kvsat = {0+sky130_fd_pr__pfet_01v8__kvsat_diff}
+ steta0 = 0.0
+ tku0 = 0.0
.model sky130_fd_pr__pfet_01v8__model.2 pmos
* DC IV MOS Parameters
+ lmin = 9.95e-07 lmax = 1.005e-06 wmin = 9.95e-07 wmax = 1.005e-6
+ level = 54.0
+ tnom = 30.0
+ version = 4.5
+ toxm = 4.23e-9
+ xj = 1.5e-7
+ lln = 1.0
+ lwn = 1.0
+ wln = 1.0
+ wwn = 1.0
+ lint = {-1.3994e-008+sky130_fd_pr__pfet_01v8__lint_diff}
+ ll = 0.0
+ lw = 0.0
+ lwl = 0.0
+ wint = {7.3039e-009+sky130_fd_pr__pfet_01v8__wint_diff}
+ wl = 0.0
+ ww = 0.0
+ wwl = 0.0
+ xl = 0.0
+ xw = 0.0
+ mobmod = 0.0
+ binunit = 2.0
+ dwg = -5.722e-9
+ dwb = -1.7864e-8
* BSIM4 - Model Selectors
+ igcmod = 0.0
+ igbmod = 0.0
+ rgatemod = 0.0
+ rbodymod = 1.0
+ trnqsmod = 0.0
+ acnqsmod = 0.0
+ fnoimod = 1.0
+ tnoimod = 1.0
+ permod = 1.0
+ geomod = 0.0
+ rdsmod = 0.0
+ tempmod = 0.0
+ lintnoi = -2.0e-7
+ vfbsdoff = 0.0
+ lambda = 0.0
+ vtl = 0.0
+ lc = 5.0e-9
+ xn = 3.0
+ rnoia = 0.69
+ rnoib = 0.34
+ tnoia = 25.0e+6
+ tnoib = .0e-6
* BSIM4 - Process Parameters
+ epsrox = 3.9
+ toxe = {4.23e-009*sky130_fd_pr__pfet_01v8__toxe_mult+sky130_fd_pr__pfet_01v8__toxe_slope_spectre*(4.23e-09*sky130_fd_pr__pfet_01v8__toxe_mult*(sky130_fd_pr__pfet_01v8__toxe_slope/sqrt(l*w*mult)))}
+ dtox = 0.0
+ ndep = 1.7e+17
+ nsd = 1.0e+20
+ rshg = 0.1
+ rsh = {1*sky130_fd_pr__pfet_01v8__rshp_mult}
* Threshold Voltage Parameters
+ vth0 = {-1.005+sky130_fd_pr__pfet_01v8__vth0_diff_2+sky130_fd_pr__pfet_01v8__vth0_slope_spectre*(sky130_fd_pr__pfet_01v8__vth0_slope/sqrt(l*w*mult))}
+ k1 = 0.45361058
+ k2 = {0.017567785+sky130_fd_pr__pfet_01v8__k2_diff_2}
+ k3 = -15.845
+ dvt0 = 4.4955
+ dvt1 = 0.294
+ dvt2 = 0.015
+ dvt0w = -4.9772
+ dvt1w = 1147200.0
+ dvt2w = -0.00896
+ w0 = 0.0
+ k3b = 2.0
* NEW BSIM4 Parameters for Level 54
+ phin = 0.0
+ lpe0 = 0.0
+ lpeb = 0.0
+ vbm = -3.0
+ dvtp0 = 0.0
+ dvtp1 = 0.0
* Mobility Parameters
+ vsat = {28810.641+sky130_fd_pr__pfet_01v8__vsat_diff_2}
+ ua = {-7.4785951e-010+sky130_fd_pr__pfet_01v8__ua_diff_2}
+ ub = {6.5707758e-019+sky130_fd_pr__pfet_01v8__ub_diff_2}
+ uc = -4.8679745e-11
+ rdsw = {547.88+sky130_fd_pr__pfet_01v8__rdsw_diff_2}
+ prwb = -0.32348
+ prwg = 0.1376
+ wr = 1.0
+ u0 = {0.0072271+sky130_fd_pr__pfet_01v8__u0_diff_2}
+ a0 = {0.63175+sky130_fd_pr__pfet_01v8__a0_diff_2}
+ keta = {-0.037840736+sky130_fd_pr__pfet_01v8__keta_diff_2}
+ a1 = 0.0
+ a2 = 0.8
+ ags = {1.153125+sky130_fd_pr__pfet_01v8__ags_diff_2}
+ b0 = {0+sky130_fd_pr__pfet_01v8__b0_diff_2}
+ b1 = {0+sky130_fd_pr__pfet_01v8__b1_diff_2}
* BSIM4 - Mobility Parameters
+ eu = 1.67
+ rdswmin = 0.0
+ rdw = 0.0
+ rdwmin = 0.0
+ rsw = 0.0
+ rswmin = 0.0
* Subthreshold Current Parameters
+ voff = {-0.17660159+sky130_fd_pr__pfet_01v8__voff_diff_2+sky130_fd_pr__pfet_01v8__voff_slope_spectre*(sky130_fd_pr__pfet_01v8__voff_slope/sqrt(l*w*mult))}
+ nfactor = {1.9+sky130_fd_pr__pfet_01v8__nfactor_diff_2+sky130_fd_pr__pfet_01v8__nfactor_slope_spectre*(sky130_fd_pr__pfet_01v8__nfactor_slope/sqrt(l*w*mult))}
+ up = 0.0
+ ud = 0.0
+ lp = 1.0
+ tvfbsdoff = 0.0
+ tvoff = {0+sky130_fd_pr__pfet_01v8__tvoff_diff_2}
+ cit = 1.0e-5
+ cdsc = 0.00013
+ cdscb = 0.00078
+ cdscd = 0.0
+ eta0 = {0.08+sky130_fd_pr__pfet_01v8__eta0_diff_2}
+ etab = -0.007
+ dsub = 0.56
* BSIM4 - Sub-threshold parameters
+ voffl = 0.0
+ minv = 0.0
* Rout Parameters
+ pclm = {0.37137649+sky130_fd_pr__pfet_01v8__pclm_diff_2}
+ pdiblc1 = 0.38223933
+ pdiblc2 = 0.000215
+ pdiblcb = -0.025
+ drout = 0.9112528
+ pscbe1 = 8.0e+8
+ pscbe2 = 8.4098587e-9
+ pvag = 0.0
+ delta = 0.01
+ alpha0 = 1.0e-10
+ alpha1 = 1.0e-10
+ beta0 = 8.9010262
* BSIM4 - Rout Parameters
+ fprout = 0.0
+ pdits = {0+sky130_fd_pr__pfet_01v8__pdits_diff_2}
+ pditsl = 0.0
+ pditsd = {0+sky130_fd_pr__pfet_01v8__pditsd_diff_2}
* BSIM4 - Gate Induced Drain Leakage Model Parameters
+ agidl = {1e-010+sky130_fd_pr__pfet_01v8__agidl_diff_2}
+ bgidl = {1e009+sky130_fd_pr__pfet_01v8__bgidl_diff_2}
+ cgidl = {300+sky130_fd_pr__pfet_01v8__cgidl_diff_2}
+ egidl = 0.1
* BSIM4 - Gate Leakage Current Parameters
+ aigbacc = 0.43
+ bigbacc = 0.054
+ cigbacc = 0.075
+ nigbacc = 1.0
+ aigbinv = 0.35
+ bigbinv = 0.03
+ cigbinv = 0.006
+ eigbinv = 1.1
+ nigbinv = 3.0
+ aigc = 0.43
+ bigc = 0.054
+ cigc = 0.075
+ nigc = 1.0
+ aigsd = 0.43
+ bigsd = 0.054
+ cigsd = 0.075
+ dlcig = 0.0
+ poxedge = 1.0
+ pigcd = 1.0
+ ntox = 1.0
+ toxref = 4.23e-9
* Temperature Effects Parameters
+ kt1 = {-0.51384673+sky130_fd_pr__pfet_01v8__kt1_diff_2}
+ kt2 = -0.06387541
+ at = 22950.061
+ ute = -1.1934315
+ ua1 = -2.4046243e-10
+ ub1 = 4.7991978e-19
+ uc1 = 4.7436576e-11
+ kt1l = 0.0
+ prt = 0.0
* BSIM4 - High Speed RF Model Parameters
+ xrcrg1 = 12.0
+ xrcrg2 = 1.0
+ rbpb = 50.0
+ rbpd = 50.0
+ rbps = 50.0
+ rbdb = 50.0
+ rbsb = 50.0
+ gbmin = 1.0e-12
* BSIM4 - Flicker and Thermal Noise Parameters
+ noia = 1.5e+42
+ noib = 0.0
+ noic = 0.0
+ em = 4.1000000e+7
+ af = 1.0
+ ef = 1.0
+ kf = 0.0
+ ntnoi = 1.0
* BSIM4 - Layout Dependent Parasitic Model Parameters
+ dmcg = 0.0
+ dmcgt = 0.0
+ dmdg = 0.0
+ xgw = 0.0
+ xgl = 0.0
+ ngcon = 1.0
* Diode DC IV Parameters
* BSIM4 - Diode DC IV parameters
+ diomod = 1.0
+ njs = 1.3632
+ jss = 2.1483e-5
+ jsws = 8.040000000000001e-10
+ xtis = 5.2
+ bvs = 12.69
+ xjbvs = 1.0
+ ijthsrev = 0.1
+ ijthsfwd = 0.1
* Diode and FET Capacitance Parameters
+ tpb = 0.0020386
+ tpbsw = 0.001246
+ tpbswg = 0.0
+ tcj = 0.0012407
+ tcjsw = 0.00037357
+ tcjswg = 2.0e-12
+ cgdo = {5.5e-11*sky130_fd_pr__pfet_01v8__overlap_mult}
+ cgso = {5.5e-11*sky130_fd_pr__pfet_01v8__overlap_mult}
+ cgbo = 0.0
+ capmod = 2.0
+ xpart = 0.0
+ cgsl = {1.0005e-011*sky130_fd_pr__pfet_01v8__overlap_mult}
+ cgdl = {1.0005e-011*sky130_fd_pr__pfet_01v8__overlap_mult}
+ cf = 1.2e-11
+ clc = 1.0e-7
+ cle = 0.6
+ dlc = {-3e-09+sky130_fd_pr__pfet_01v8__dlc_diff+sky130_fd_pr__pfet_01v8__dlc_rotweak}
+ dwc = {0+sky130_fd_pr__pfet_01v8__dwc_diff}
+ vfbcv = -0.14469
+ acde = 0.8
+ moin = 18.13
+ noff = 3.9
+ voffcv = -0.10701
+ ngate = 1.0e+23
+ lwc = 0.0
+ llc = 0.0
+ lwlc = 0.0
+ wlc = 0.0
+ wwc = 0.0
+ wwlc = 0.0
* BSIM4 - FET and Diode capacitance parameters
+ ckappas = 0.6
+ cjs = {0.00074079*sky130_fd_pr__pfet_01v8__ajunction_mult}
+ mjs = 0.34629
+ pbs = 0.6587
+ cjsws = {9.88e-011*sky130_fd_pr__pfet_01v8__pjunction_mult}
+ mjsws = 0.29781
+ pbsws = 0.7418
+ cjswgs = {2.3894e-010*sky130_fd_pr__pfet_01v8__pjunction_mult}
+ mjswgs = 0.9274
+ pbswgs = 1.4338
* Stress Parameters
+ saref = 2.75e-6
+ sbref = 2.74e-6
+ wlod = {0+sky130_fd_pr__pfet_01v8__wlod_diff}
+ kvth0 = {0+sky130_fd_pr__pfet_01v8__kvth0_diff}
+ lkvth0 = {0+sky130_fd_pr__pfet_01v8__lkvth0_diff}
+ wkvth0 = {0+sky130_fd_pr__pfet_01v8__wkvth0_diff}
+ pkvth0 = 0.0
+ llodvth = 0.0
+ wlodvth = 1.0
+ stk2 = 0.0
+ lodk2 = 1.0
+ lodeta0 = 1.0
+ ku0 = {0+sky130_fd_pr__pfet_01v8__ku0_diff}
+ lku0 = {0+sky130_fd_pr__pfet_01v8__lku0_diff}
+ wku0 = {0+sky130_fd_pr__pfet_01v8__wku0_diff}
+ pku0 = 0.0
+ llodku0 = 0.0
+ wlodku0 = 1.0
+ kvsat = {0+sky130_fd_pr__pfet_01v8__kvsat_diff}
+ steta0 = 0.0
+ tku0 = 0.0
.model sky130_fd_pr__pfet_01v8__model.3 pmos
* DC IV MOS Parameters
+ lmin = 1.995e-06 lmax = 2.005e-06 wmin = 9.95e-07 wmax = 1.005e-6
+ level = 54.0
+ tnom = 30.0
+ version = 4.5
+ toxm = 4.23e-9
+ xj = 1.5e-7
+ lln = 1.0
+ lwn = 1.0
+ wln = 1.0
+ wwn = 1.0
+ lint = {-1.3994e-008+sky130_fd_pr__pfet_01v8__lint_diff}
+ ll = 0.0
+ lw = 0.0
+ lwl = 0.0
+ wint = {7.3039e-009+sky130_fd_pr__pfet_01v8__wint_diff}
+ wl = 0.0
+ ww = 0.0
+ wwl = 0.0
+ xl = 0.0
+ xw = 0.0
+ mobmod = 0.0
+ binunit = 2.0
+ dwg = -5.722e-9
+ dwb = -1.7864e-8
* BSIM4 - Model Selectors
+ igcmod = 0.0
+ igbmod = 0.0
+ rgatemod = 0.0
+ rbodymod = 1.0
+ trnqsmod = 0.0
+ acnqsmod = 0.0
+ fnoimod = 1.0
+ tnoimod = 1.0
+ permod = 1.0
+ geomod = 0.0
+ rdsmod = 0.0
+ tempmod = 0.0
+ lintnoi = -2.0e-7
+ vfbsdoff = 0.0
+ lambda = 0.0
+ vtl = 0.0
+ lc = 5.0e-9
+ xn = 3.0
+ rnoia = 0.69
+ rnoib = 0.34
+ tnoia = 25.0e+6
+ tnoib = .0e-6
* BSIM4 - Process Parameters
+ epsrox = 3.9
+ toxe = {4.23e-009*sky130_fd_pr__pfet_01v8__toxe_mult+sky130_fd_pr__pfet_01v8__toxe_slope_spectre*(4.23e-09*sky130_fd_pr__pfet_01v8__toxe_mult*(sky130_fd_pr__pfet_01v8__toxe_slope/sqrt(l*w*mult)))}
+ dtox = 0.0
+ ndep = 1.7e+17
+ nsd = 1.0e+20
+ rshg = 0.1
+ rsh = {1*sky130_fd_pr__pfet_01v8__rshp_mult}
* Threshold Voltage Parameters
+ vth0 = {-1.0193+sky130_fd_pr__pfet_01v8__vth0_diff_3+sky130_fd_pr__pfet_01v8__vth0_slope_spectre*(sky130_fd_pr__pfet_01v8__vth0_slope/sqrt(l*w*mult))}
+ k1 = 0.46123612
+ k2 = {0.019412161+sky130_fd_pr__pfet_01v8__k2_diff_3}
+ k3 = -15.845
+ dvt0 = 4.4955
+ dvt1 = 0.294
+ dvt2 = 0.015
+ dvt0w = -4.9772
+ dvt1w = 1147200.0
+ dvt2w = -0.00896
+ w0 = 0.0
+ k3b = 2.0
* NEW BSIM4 Parameters for Level 54
+ phin = 0.0
+ lpe0 = 0.0
+ lpeb = 0.0
+ vbm = -3.0
+ dvtp0 = 0.0
+ dvtp1 = 0.0
* Mobility Parameters
+ vsat = {53437.5+sky130_fd_pr__pfet_01v8__vsat_diff_3}
+ ua = {-1.0211363e-009+sky130_fd_pr__pfet_01v8__ua_diff_3}
+ ub = {7.9306706e-019+sky130_fd_pr__pfet_01v8__ub_diff_3}
+ uc = -4.5032348e-11
+ rdsw = {547.88+sky130_fd_pr__pfet_01v8__rdsw_diff_3}
+ prwb = -0.32348
+ prwg = 0.1376
+ wr = 1.0
+ u0 = {0.006259+sky130_fd_pr__pfet_01v8__u0_diff_3}
+ a0 = {1.1302+sky130_fd_pr__pfet_01v8__a0_diff_3}
+ keta = {-0.0048142243+sky130_fd_pr__pfet_01v8__keta_diff_3}
+ a1 = 0.0
+ a2 = 0.8
+ ags = {0.37980837+sky130_fd_pr__pfet_01v8__ags_diff_3}
+ b0 = {0+sky130_fd_pr__pfet_01v8__b0_diff_3}
+ b1 = {0+sky130_fd_pr__pfet_01v8__b1_diff_3}
* BSIM4 - Mobility Parameters
+ eu = 1.67
+ rdswmin = 0.0
+ rdw = 0.0
+ rdwmin = 0.0
+ rsw = 0.0
+ rswmin = 0.0
* Subthreshold Current Parameters
+ voff = {-0.17603939+sky130_fd_pr__pfet_01v8__voff_diff_3+sky130_fd_pr__pfet_01v8__voff_slope_spectre*(sky130_fd_pr__pfet_01v8__voff_slope/sqrt(l*w*mult))}
+ nfactor = {1.5884088+sky130_fd_pr__pfet_01v8__nfactor_diff_3+sky130_fd_pr__pfet_01v8__nfactor_slope_spectre*(sky130_fd_pr__pfet_01v8__nfactor_slope/sqrt(l*w*mult))}
+ up = 0.0
+ ud = 0.0
+ lp = 1.0
+ tvfbsdoff = 0.0
+ tvoff = {0+sky130_fd_pr__pfet_01v8__tvoff_diff_3}
+ cit = 1.0e-5
+ cdsc = 0.00013
+ cdscb = 0.00078
+ cdscd = 0.0
+ eta0 = {0.0005+sky130_fd_pr__pfet_01v8__eta0_diff_3}
+ etab = -0.00050000149
+ dsub = 0.26
* BSIM4 - Sub-threshold parameters
+ voffl = 0.0
+ minv = 0.0
* Rout Parameters
+ pclm = {0.35228743+sky130_fd_pr__pfet_01v8__pclm_diff_3}
+ pdiblc1 = 0.39
+ pdiblc2 = 0.000215
+ pdiblcb = -0.225
+ drout = 0.56
+ pscbe1 = 8.0e+8
+ pscbe2 = 9.3721337e-9
+ pvag = 0.0
+ delta = 0.01
+ alpha0 = 3.048987e-12
+ alpha1 = -2.9238605e-15
+ beta0 = 3.0
* BSIM4 - Rout Parameters
+ fprout = 0.0
+ pdits = {0+sky130_fd_pr__pfet_01v8__pdits_diff_3}
+ pditsl = 0.0
+ pditsd = {0+sky130_fd_pr__pfet_01v8__pditsd_diff_3}
* BSIM4 - Gate Induced Drain Leakage Model Parameters
+ agidl = {2.4838246e-010+sky130_fd_pr__pfet_01v8__agidl_diff_3}
+ bgidl = {1e009+sky130_fd_pr__pfet_01v8__bgidl_diff_3}
+ cgidl = {300+sky130_fd_pr__pfet_01v8__cgidl_diff_3}
+ egidl = 0.1
* BSIM4 - Gate Leakage Current Parameters
+ aigbacc = 0.43
+ bigbacc = 0.054
+ cigbacc = 0.075
+ nigbacc = 1.0
+ aigbinv = 0.35
+ bigbinv = 0.03
+ cigbinv = 0.006
+ eigbinv = 1.1
+ nigbinv = 3.0
+ aigc = 0.43
+ bigc = 0.054
+ cigc = 0.075
+ nigc = 1.0
+ aigsd = 0.43
+ bigsd = 0.054
+ cigsd = 0.075
+ dlcig = 0.0
+ poxedge = 1.0
+ pigcd = 1.0
+ ntox = 1.0
+ toxref = 4.23e-9
* Temperature Effects Parameters
+ kt1 = {-0.47097+sky130_fd_pr__pfet_01v8__kt1_diff_3}
+ kt2 = -0.045529
+ at = 7459.5
+ ute = -0.89505
+ ua1 = -1.5331e-10
+ ub1 = 7.4669e-19
+ uc1 = 6.1866e-11
+ kt1l = 0.0
+ prt = 0.0
* BSIM4 - High Speed RF Model Parameters
+ xrcrg1 = 12.0
+ xrcrg2 = 1.0
+ rbpb = 50.0
+ rbpd = 50.0
+ rbps = 50.0
+ rbdb = 50.0
+ rbsb = 50.0
+ gbmin = 1.0e-12
* BSIM4 - Flicker and Thermal Noise Parameters
+ noia = 1.5e+42
+ noib = 0.0
+ noic = 0.0
+ em = 4.1000000e+7
+ af = 1.0
+ ef = 1.0
+ kf = 0.0
+ ntnoi = 1.0
* BSIM4 - Layout Dependent Parasitic Model Parameters
+ dmcg = 0.0
+ dmcgt = 0.0
+ dmdg = 0.0
+ xgw = 0.0
+ xgl = 0.0
+ ngcon = 1.0
* Diode DC IV Parameters
* BSIM4 - Diode DC IV parameters
+ diomod = 1.0
+ njs = 1.3632
+ jss = 2.1483e-5
+ jsws = 8.040000000000001e-10
+ xtis = 5.2
+ bvs = 12.69
+ xjbvs = 1.0
+ ijthsrev = 0.1
+ ijthsfwd = 0.1
* Diode and FET Capacitance Parameters
+ tpb = 0.0020386
+ tpbsw = 0.001246
+ tpbswg = 0.0
+ tcj = 0.0012407
+ tcjsw = 0.00037357
+ tcjswg = 2.0e-12
+ cgdo = {5.5e-11*sky130_fd_pr__pfet_01v8__overlap_mult}
+ cgso = {5.5e-11*sky130_fd_pr__pfet_01v8__overlap_mult}
+ cgbo = 0.0
+ capmod = 2.0
+ xpart = 0.0
+ cgsl = {1.0005e-011*sky130_fd_pr__pfet_01v8__overlap_mult}
+ cgdl = {1.0005e-011*sky130_fd_pr__pfet_01v8__overlap_mult}
+ cf = 1.2e-11
+ clc = 1.0e-7
+ cle = 0.6
+ dlc = {-3e-09+sky130_fd_pr__pfet_01v8__dlc_diff+sky130_fd_pr__pfet_01v8__dlc_rotweak}
+ dwc = {0+sky130_fd_pr__pfet_01v8__dwc_diff}
+ vfbcv = -0.14469
+ acde = 0.8
+ moin = 18.13
+ noff = 3.9
+ voffcv = -0.10701
+ ngate = 1.0e+23
+ lwc = 0.0
+ llc = 0.0
+ lwlc = 0.0
+ wlc = 0.0
+ wwc = 0.0
+ wwlc = 0.0
* BSIM4 - FET and Diode capacitance parameters
+ ckappas = 0.6
+ cjs = {0.00074079*sky130_fd_pr__pfet_01v8__ajunction_mult}
+ mjs = 0.34629
+ pbs = 0.6587
+ cjsws = {9.88e-011*sky130_fd_pr__pfet_01v8__pjunction_mult}
+ mjsws = 0.29781
+ pbsws = 0.7418
+ cjswgs = {2.3894e-010*sky130_fd_pr__pfet_01v8__pjunction_mult}
+ mjswgs = 0.9274
+ pbswgs = 1.4338
* Stress Parameters
+ saref = 3.0e-6
+ sbref = 3.0e-6
+ wlod = {0+sky130_fd_pr__pfet_01v8__wlod_diff}
+ kvth0 = {0+sky130_fd_pr__pfet_01v8__kvth0_diff}
+ lkvth0 = {0+sky130_fd_pr__pfet_01v8__lkvth0_diff}
+ wkvth0 = {0+sky130_fd_pr__pfet_01v8__wkvth0_diff}
+ pkvth0 = 0.0
+ llodvth = 0.0
+ wlodvth = 1.0
+ stk2 = 0.0
+ lodk2 = 1.0
+ lodeta0 = 1.0
+ ku0 = {0+sky130_fd_pr__pfet_01v8__ku0_diff}
+ lku0 = {0+sky130_fd_pr__pfet_01v8__lku0_diff}
+ wku0 = {0+sky130_fd_pr__pfet_01v8__wku0_diff}
+ pku0 = 0.0
+ llodku0 = 0.0
+ wlodku0 = 1.0
+ kvsat = {0+sky130_fd_pr__pfet_01v8__kvsat_diff}
+ steta0 = 0.0
+ tku0 = 0.0
.model sky130_fd_pr__pfet_01v8__model.4 pmos
* DC IV MOS Parameters
+ lmin = 3.995e-06 lmax = 4.005e-06 wmin = 9.95e-07 wmax = 1.005e-6
+ level = 54.0
+ tnom = 30.0
+ version = 4.5
+ toxm = 4.23e-9
+ xj = 1.5e-7
+ lln = 1.0
+ lwn = 1.0
+ wln = 1.0
+ wwn = 1.0
+ lint = {-1.3994e-008+sky130_fd_pr__pfet_01v8__lint_diff}
+ ll = 0.0
+ lw = 0.0
+ lwl = 0.0
+ wint = {7.3039e-009+sky130_fd_pr__pfet_01v8__wint_diff}
+ wl = 0.0
+ ww = 0.0
+ wwl = 0.0
+ xl = 0.0
+ xw = 0.0
+ mobmod = 0.0
+ binunit = 2.0
+ dwg = -5.722e-9
+ dwb = -1.7864e-8
* BSIM4 - Model Selectors
+ igcmod = 0.0
+ igbmod = 0.0
+ rgatemod = 0.0
+ rbodymod = 1.0
+ trnqsmod = 0.0
+ acnqsmod = 0.0
+ fnoimod = 1.0
+ tnoimod = 1.0
+ permod = 1.0
+ geomod = 0.0
+ rdsmod = 0.0
+ tempmod = 0.0
+ lintnoi = -2.0e-7
+ vfbsdoff = 0.0
+ lambda = 0.0
+ vtl = 0.0
+ lc = 5.0e-9
+ xn = 3.0
+ rnoia = 0.69