* Copyright 2020 The SkyWater PDK Authors
*
* Licensed under the Apache License, Version 2.0 (the "License");
* you may not use this file except in compliance with the License.
* You may obtain a copy of the License at
*
*     https://www.apache.org/licenses/LICENSE-2.0
*
* Unless required by applicable law or agreed to in writing, software
* distributed under the License is distributed on an "AS IS" BASIS,
* WITHOUT WARRANTIES OR CONDITIONS OF ANY KIND, either express or implied.
* See the License for the specific language governing permissions and
* limitations under the License.

* SKY130 Spice File.
.param sky130_fd_pr__nfet_01v8__toxe_slope_spectre = 0.0
.param sky130_fd_pr__nfet_01v8__vth0_slope_spectre = 0.0
.param sky130_fd_pr__nfet_01v8__voff_slope_spectre = 0.0
* statistics {
*   process {
*   }
*   mismatch {
*     vary sky130_fd_pr__nfet_01v8__toxe_slope_spectre dist=gauss std = 1.0
*     vary sky130_fd_pr__nfet_01v8__vth0_slope_spectre dist=gauss std = 1.0
*     vary sky130_fd_pr__nfet_01v8__voff_slope_spectre dist=gauss std = 1.0
*   }
* }
.subckt  sky130_fd_pr__nfet_01v8 d g s b
+ 
.param  l = 1 w = 1 ad = 0 as = 0 pd = 0 ps = 0 nrd = 0 nrs = 0 sa = 0 sb = 0 sd = 0 mult = 1 nf = 1.0
msky130_fd_pr__nfet_01v8 d g s b sky130_fd_pr__nfet_01v8__model l = {l} w = {w} ad = {ad} as = {as} pd = {pd} ps = {ps} nrd = {nrd} nrs = {nrs} sa = {sa} sb = {sb} sd = {sd} nf = {nf}
.model sky130_fd_pr__nfet_01v8__model.0 nmos
* Model Flag Parameters
+ lmin = 2.0e-05 lmax = 0.0001 wmin = 7.0e-06 wmax = 0.0001
+ level = 54.0
+ version = 4.5
+ binunit = 2.0
+ mobmod = 0.0
+ capmod = 2.0
+ igcmod = 0.0
+ igbmod = 0.0
+ geomod = 0.0
+ diomod = 1.0
+ rdsmod = 0.0
+ rbodymod = 1.0
+ rgatemod = 0.0
+ permod = 1.0
+ acnqsmod = 0.0
+ trnqsmod = 0.0
+ fnoimod = 1.0
+ tnoimod = 1.0
+ tempmod = 0.0
* Process Parameters
+ toxe = {4.363696e-09+sky130_fd_pr__nfet_01v8__toxe_slope_spectre*(4.148e-09*1.052*(sky130_fd_pr__nfet_01v8__toxe_slope/sqrt(l*w*mult)))}
+ toxm = 4.148e-9
+ dtox = 0.0
+ epsrox = 3.9
+ xj = 1.5e-7
+ ngate = 1.0e+23
+ ndep = 1.7e+17
+ nsd = 1.0e+20
+ rsh = 1.0
+ rshg = 0.1
* Basic Model Parameters
+ wint = 5.4034e-8
+ lint = -5.393e-9
+ vth0 = {0.5160869+sky130_fd_pr__nfet_01v8__vth0_slope_spectre*(sky130_fd_pr__nfet_01v8__vth0_slope/sqrt(l*w*mult))}
+ k1 = 0.54086565
+ k2 = -0.026708291
+ k3 = 2.0
+ k3b = 0.54
+ w0 = 0.0
+ dvt0 = 0.0
+ dvt1 = 0.53
+ dvt2 = -0.032
+ dvt0w = -3.58
+ dvt1w = 1670600.0
+ dvt2w = 0.068
+ dsub = 0.56
+ minv = 0.0
+ voffl = 5.8197729e-9
+ lpe0 = 1.0325e-7
+ lpeb = -7.082e-8
+ vbm = -3.0
+ dvtp0 = 0.0
+ dvtp1 = 0.0
+ phin = 0.0
+ cdsc = 0.0
+ cdscb = 0.0
+ cdscd = 0.0054
+ cit = 0.0
+ voff = {-0.1052686+sky130_fd_pr__nfet_01v8__voff_slope_spectre*(sky130_fd_pr__nfet_01v8__voff_slope/sqrt(l*w*mult))}
+ nfactor = 2.68453
+ eta0 = 0.08
+ etab = -0.07
+ u0 = 0.0314621
+ ua = -7.5795907e-10
+ ub = 1.57049e-18
+ uc = 4.9242e-11
+ ud = 0.0
+ up = 0.0
+ lp = 1.0
+ eu = 1.67
+ vtl = 0.0
+ xn = 3.0
+ vsat = 80000.0
+ a0 = 1.369451
+ ags = 0.380025
+ a1 = 0.0
+ a2 = 0.42385546
+ b0 = 0.0
+ b1 = 2.1073424e-24
+ keta = -0.0087946
+ dwg = 0.0
+ dwb = 0.0
+ pclm = 0.026316
+ pdiblc1 = 0.39
+ pdiblc2 = 0.0030734587
+ pdiblcb = -0.025
+ drout = 0.56
+ pscbe1 = 754674160.0
+ pscbe2 = 1.0e-12
+ pvag = 0.0
+ delta = 0.01
+ fprout = 0.0
+ pdits = 0.0
+ pditsl = 0.0
+ pditsd = 0.0
+ lambda = 0.0
+ lc = 5.0e-9
* Parameters FOR Asymmetric AND Bias-Dependent RDS Model
+ rdsw = 65.968
+ rsw = 0.0
+ rdw = 0.0
+ rdswmin = 0.0
+ rdwmin = 0.0
+ rswmin = 0.0
+ prwb = 0.0
+ prwg = 0.021507
+ wr = 1.0
* Impact Ionization Current Model Parameters
+ alpha0 = 3.0e-8
+ alpha1 = 0.85
+ beta0 = 13.86
* Gidl Induced Drain Leakage Model Parameters
+ agidl = 0.0
+ bgidl = 2300000000.0
+ cgidl = 0.5
+ egidl = 0.8
* Gate Dielectric Tunneling Current Model Parameters
+ toxref = 4.148e-9
+ dlcig = 0.0
+ aigbacc = 1.0
+ bigbacc = 0.0
+ cigbacc = 0.0
+ nigbacc = 0.0
+ aigbinv = 0.35
+ bigbinv = 0.03
+ cigbinv = 0.006
+ eigbinv = 1.1
+ nigbinv = 0.0
+ aigc = 0.43
+ bigc = 0.054
+ cigc = 0.075
+ aigsd = 0.43
+ bigsd = 0.054
+ cigsd = 0.075
+ nigc = 0.0
+ poxedge = 1.0
+ pigcd = 1.0
+ ntox = 1.0
+ vfbsdoff = 0.0
* Charge AND Capacitance Model Parameters
+ dlc = -6.928e-9
+ dwc = 3.2175e-8
+ xpart = 0.0
+ cgso = 2.4384e-10
+ cgdo = 2.4384e-10
+ cgbo = 1.0e-13
+ cgdl = 0.0
+ cgsl = 0.0
+ clc = 1.0e-7
+ cle = 0.6
+ cf = 1.4067e-12
+ ckappas = 0.6
+ vfbcv = -1.0
+ acde = 0.4
+ moin = 6.9
+ noff = 3.4037
+ voffcv = -0.17287
* High-Speed/RF Model Parameters
+ xrcrg1 = 12.0
+ xrcrg2 = 1.0
+ rbpb = 50.0
+ rbpd = 50.0
+ rbps = 50.0
+ rbdb = 50.0
+ rbsb = 50.0
+ gbmin = 1.0e-12
* Flicker AND Thermal Noise Model Parameters
+ ef = 0.84
+ noia = 2.5e+42
+ noib = 0.0
+ noic = 0.0
+ em = 41000000.0
+ ntnoi = 1.0
+ lintnoi = -1.0e-7
+ af = 1.0
+ kf = 0.0
+ tnoia = 15000000.0
+ tnoib = 9900000.0
+ rnoia = 0.94
+ rnoib = 0.26
* Layout-Dependent Parasitics Model Parameters
+ xl = 0.0
+ xw = 0.0
+ dmcg = 0.0
+ dmdg = 0.0
+ dmcgt = 0.0
+ xgw = 0.0
+ xgl = 0.0
+ ngcon = 1.0
* Asymmetric Source/Drain Junction Diode Model Parameters
+ jss = 0.00275
+ jsws = 6.0e-10
+ ijthsfwd = 0.1
+ ijthsrev = 0.1
+ bvs = 11.7
+ xjbvs = 1.0
+ pbs = 0.729
+ cjs = 0.00163782571
+ mjs = 0.44
+ pbsws = 0.2
+ cjsws = 4.49076474e-11
+ mjsws = 0.0009
+ pbswgs = 0.95578
+ cjswgs = 2.91230478e-10
+ mjswgs = 0.8
* Temperature Dependence Parameters
+ tnom = 30.0
+ kt1 = -0.31303
+ kt2 = -0.045313337
+ at = 140000.0
+ ute = -1.8134
+ ua1 = 3.7602e-10
+ ub1 = -6.3962e-19
+ uc1 = 1.5829713e-11
+ kt1l = 0.0
+ prt = 0.0
+ tvoff = 0.0
+ njs = 1.2928
+ tpb = 0.0012287
+ tcj = 0.000792
+ tpbsw = 0.0
+ tcjsw = 1.0e-5
+ tpbswg = 0.0
+ tcjswg = 0.0
+ xtis = 2.0
+ tvfbsdoff = 0.0
* DW AND DL Parameters
+ ll = 0.0
+ wl = 0.0
+ lln = 1.0
+ wln = 1.0
+ lw = 0.0
+ ww = 0.0
+ lwn = 1.0
+ wwn = 1.0
+ lwl = 0.0
+ wwl = 0.0
+ llc = 0.0
+ wlc = 0.0
+ lwc = 0.0
+ wwc = 0.0
+ lwlc = 0.0
+ wwlc = 0.0
* Stress Parameters
+ saref = 3.0e-6
+ sbref = 3.0e-6
+ kvth0 = 9.8e-9
+ lkvth0 = 0.0
+ wkvth0 = 2.0e-7
+ pkvth0 = 0.0
+ llodvth = 0.0
+ wlodvth = 1.0
+ wlod = 0.0
+ stk2 = 0.0
+ lodk2 = 1.0
+ lodeta0 = 1.0
+ ku0 = -2.7e-8
+ lku0 = 0.0
+ wku0 = 0.0
+ pku0 = 0.0
+ tku0 = 0.0
+ llodku0 = 0.0
+ wlodku0 = 1.0
+ kvsat = 0.2
+ steta0 = 0.0
* Well Proximity Effect Parameters
.model sky130_fd_pr__nfet_01v8__model.1 nmos
* Model Flag Parameters
+ lmin = 8.0e-06 lmax = 2.0e-05 wmin = 7.0e-06 wmax = 0.0001
+ level = 54.0
+ version = 4.5
+ binunit = 2.0
+ mobmod = 0.0
+ capmod = 2.0
+ igcmod = 0.0
+ igbmod = 0.0
+ geomod = 0.0
+ diomod = 1.0
+ rdsmod = 0.0
+ rbodymod = 1.0
+ rgatemod = 0.0
+ permod = 1.0
+ acnqsmod = 0.0
+ trnqsmod = 0.0
+ fnoimod = 1.0
+ tnoimod = 1.0
+ tempmod = 0.0
* Process Parameters
+ toxe = {4.363696e-09+sky130_fd_pr__nfet_01v8__toxe_slope_spectre*(4.148e-09*1.052*(sky130_fd_pr__nfet_01v8__toxe_slope/sqrt(l*w*mult)))}
+ toxm = 4.148e-9
+ dtox = 0.0
+ epsrox = 3.9
+ xj = 1.5e-7
+ ngate = 1.0e+23
+ ndep = 1.7e+17
+ nsd = 1.0e+20
+ rsh = 1.0
+ rshg = 0.1
* Basic Model Parameters
+ wint = 5.4034e-8
+ lint = -5.393e-9
+ vth0 = {0.5160869+sky130_fd_pr__nfet_01v8__vth0_slope_spectre*(sky130_fd_pr__nfet_01v8__vth0_slope/sqrt(l*w*mult))}
+ k1 = 0.54086565
+ k2 = -0.026708291
+ k3 = 2.0
+ k3b = 0.54
+ w0 = 0.0
+ dvt0 = 0.0
+ dvt1 = 0.53
+ dvt2 = -0.032
+ dvt0w = -3.58
+ dvt1w = 1670600.0
+ dvt2w = 0.068
+ dsub = 0.56
+ minv = 0.0
+ voffl = 5.8197729e-9
+ lpe0 = 1.0325e-7
+ lpeb = -7.082e-8
+ vbm = -3.0
+ dvtp0 = 0.0
+ dvtp1 = 0.0
+ phin = 0.0
+ cdsc = 0.0
+ cdscb = 0.0
+ cdscd = 0.0054
+ cit = 0.0
+ voff = {-0.1052686+sky130_fd_pr__nfet_01v8__voff_slope_spectre*(sky130_fd_pr__nfet_01v8__voff_slope/sqrt(l*w*mult))}
+ nfactor = 2.68453
+ eta0 = 0.08
+ etab = -0.07
+ u0 = 0.0314621
+ ua = -7.5795907e-10
+ ub = 1.57049e-18
+ uc = 4.9242e-11
+ ud = 0.0
+ up = 0.0
+ lp = 1.0
+ eu = 1.67
+ vtl = 0.0
+ xn = 3.0
+ vsat = 80000.0
+ a0 = 1.369451
+ ags = 0.380025
+ a1 = 0.0
+ a2 = 0.42385546
+ b0 = 0.0
+ b1 = 2.1073424e-24
+ keta = -0.0087946
+ dwg = 0.0
+ dwb = 0.0
+ pclm = 0.026316
+ pdiblc1 = 0.39
+ pdiblc2 = 0.0030734587
+ pdiblcb = -0.025
+ drout = 0.56
+ pscbe1 = 754674160.0
+ pscbe2 = 1.0e-12
+ pvag = 0.0
+ delta = 0.01
+ fprout = 0.0
+ pdits = 0.0
+ pditsl = 0.0
+ pditsd = 0.0
+ lambda = 0.0
+ lc = 5.0e-9
* Parameters FOR Asymmetric AND Bias-Dependent RDS Model
+ rdsw = 65.968
+ rsw = 0.0
+ rdw = 0.0
+ rdswmin = 0.0
+ rdwmin = 0.0
+ rswmin = 0.0
+ prwb = 0.0
+ prwg = 0.021507
+ wr = 1.0
* Impact Ionization Current Model Parameters
+ alpha0 = 3.0e-8
+ alpha1 = 0.85
+ beta0 = 13.86
* Gidl Induced Drain Leakage Model Parameters
+ agidl = 0.0
+ bgidl = 2300000000.0
+ cgidl = 0.5
+ egidl = 0.8
* Gate Dielectric Tunneling Current Model Parameters
+ toxref = 4.148e-9
+ dlcig = 0.0
+ aigbacc = 1.0
+ bigbacc = 0.0
+ cigbacc = 0.0
+ nigbacc = 0.0
+ aigbinv = 0.35
+ bigbinv = 0.03
+ cigbinv = 0.006
+ eigbinv = 1.1
+ nigbinv = 0.0
+ aigc = 0.43
+ bigc = 0.054
+ cigc = 0.075
+ aigsd = 0.43
+ bigsd = 0.054
+ cigsd = 0.075
+ nigc = 0.0
+ poxedge = 1.0
+ pigcd = 1.0
+ ntox = 1.0
+ vfbsdoff = 0.0
* Charge AND Capacitance Model Parameters
+ dlc = -6.928e-9
+ dwc = 3.2175e-8
+ xpart = 0.0
+ cgso = 2.4384e-10
+ cgdo = 2.4384e-10
+ cgbo = 1.0e-13
+ cgdl = 0.0
+ cgsl = 0.0
+ clc = 1.0e-7
+ cle = 0.6
+ cf = 1.4067e-12
+ ckappas = 0.6
+ vfbcv = -1.0
+ acde = 0.4
+ moin = 6.9
+ noff = 3.4037
+ voffcv = -0.17287
* High-Speed/RF Model Parameters
+ xrcrg1 = 12.0
+ xrcrg2 = 1.0
+ rbpb = 50.0
+ rbpd = 50.0
+ rbps = 50.0
+ rbdb = 50.0
+ rbsb = 50.0
+ gbmin = 1.0e-12
* Flicker AND Thermal Noise Model Parameters
+ ef = 0.84
+ noia = 2.5e+42
+ noib = 0.0
+ noic = 0.0
+ em = 41000000.0
+ ntnoi = 1.0
+ lintnoi = -1.0e-7
+ af = 1.0
+ kf = 0.0
+ tnoia = 15000000.0
+ tnoib = 9900000.0
+ rnoia = 0.94
+ rnoib = 0.26
* Layout-Dependent Parasitics Model Parameters
+ xl = 0.0
+ xw = 0.0
+ dmcg = 0.0
+ dmdg = 0.0
+ dmcgt = 0.0
+ xgw = 0.0
+ xgl = 0.0
+ ngcon = 1.0
* Asymmetric Source/Drain Junction Diode Model Parameters
+ jss = 0.00275
+ jsws = 6.0e-10
+ ijthsfwd = 0.1
+ ijthsrev = 0.1
+ bvs = 11.7
+ xjbvs = 1.0
+ pbs = 0.729
+ cjs = 0.00163782571
+ mjs = 0.44
+ pbsws = 0.2
+ cjsws = 4.49076474e-11
+ mjsws = 0.0009
+ pbswgs = 0.95578
+ cjswgs = 2.91230478e-10
+ mjswgs = 0.8
* Temperature Dependence Parameters
+ tnom = 30.0
+ kt1 = -0.31303
+ kt2 = -0.045313337
+ at = 140000.0
+ ute = -1.8134
+ ua1 = 3.7602e-10
+ ub1 = -6.3962e-19
+ uc1 = 1.5829713e-11
+ kt1l = 0.0
+ prt = 0.0
+ tvoff = 0.0
+ njs = 1.2928
+ tpb = 0.0012287
+ tcj = 0.000792
+ tpbsw = 0.0
+ tcjsw = 1.0e-5
+ tpbswg = 0.0
+ tcjswg = 0.0
+ xtis = 2.0
+ tvfbsdoff = 0.0
* DW AND DL Parameters
+ ll = 0.0
+ wl = 0.0
+ lln = 1.0
+ wln = 1.0
+ lw = 0.0
+ ww = 0.0
+ lwn = 1.0
+ wwn = 1.0
+ lwl = 0.0
+ wwl = 0.0
+ llc = 0.0
+ wlc = 0.0
+ lwc = 0.0
+ wwc = 0.0
+ lwlc = 0.0
+ wwlc = 0.0
* Stress Parameters
+ saref = 3.0e-6
+ sbref = 3.0e-6
+ kvth0 = 9.8e-9
+ lkvth0 = 0.0
+ wkvth0 = 2.0e-7
+ pkvth0 = 0.0
+ llodvth = 0.0
+ wlodvth = 1.0
+ wlod = 0.0
+ stk2 = 0.0
+ lodk2 = 1.0
+ lodeta0 = 1.0
+ ku0 = -2.7e-8
+ lku0 = 0.0
+ wku0 = 0.0
+ pku0 = 0.0
+ tku0 = 0.0
+ llodku0 = 0.0
+ wlodku0 = 1.0
+ kvsat = 0.2
+ steta0 = 0.0
* Well Proximity Effect Parameters
.model sky130_fd_pr__nfet_01v8__model.2 nmos
* Model Flag Parameters
+ lmin = 4.0e-06 lmax = 8.0e-06 wmin = 7.0e-06 wmax = 0.0001
+ level = 54.0
+ version = 4.5
+ binunit = 2.0
+ mobmod = 0.0
+ capmod = 2.0
+ igcmod = 0.0
+ igbmod = 0.0
+ geomod = 0.0
+ diomod = 1.0
+ rdsmod = 0.0
+ rbodymod = 1.0
+ rgatemod = 0.0
+ permod = 1.0
+ acnqsmod = 0.0
+ trnqsmod = 0.0
+ fnoimod = 1.0
+ tnoimod = 1.0
+ tempmod = 0.0
* Process Parameters
+ toxe = {4.363696e-09+sky130_fd_pr__nfet_01v8__toxe_slope_spectre*(4.148e-09*1.052*(sky130_fd_pr__nfet_01v8__toxe_slope/sqrt(l*w*mult)))}
+ toxm = 4.148e-9
+ dtox = 0.0
+ epsrox = 3.9
+ xj = 1.5e-7
+ ngate = 1.0e+23
+ ndep = 1.7e+17
+ nsd = 1.0e+20
+ rsh = 1.0
+ rshg = 0.1
* Basic Model Parameters
+ wint = 5.4034e-8
+ lint = -5.393e-9
+ vth0 = {5.166909460e-01+sky130_fd_pr__nfet_01v8__vth0_slope_spectre*(sky130_fd_pr__nfet_01v8__vth0_slope1/sqrt(l*w*mult))} lvth0 = -4.838883101e-09 wvth0 = -6.033932022e-08 pvth0 = 4.833653817e-13
+ k1 = 5.415453773e-01 lk1 = -5.445149777e-09 wk1 = -6.789927122e-08 pk1 = 5.439265313e-13
+ k2 = -2.711805592e-02 lk2 = 3.282539101e-09 wk2 = 4.093220973e-08 pk2 = -3.278991727e-13
+ k3 = 2.0
+ k3b = 0.54
+ w0 = 0.0
+ dvt0 = 0.0
+ dvt1 = 0.53
+ dvt2 = -0.032
+ dvt0w = -3.58
+ dvt1w = 1670600.0
+ dvt2w = 0.068
+ dsub = 0.56
+ minv = 0.0
+ voffl = 5.8197729e-9
+ lpe0 = 1.0325e-7
+ lpeb = -7.082e-8
+ vbm = -3.0
+ dvtp0 = 0.0
+ dvtp1 = 0.0
+ phin = 0.0
+ cdsc = 0.0
+ cdscb = 0.0
+ cdscd = 0.0054
+ cit = 0.0
+ voff = {-1.049996442e-01+sky130_fd_pr__nfet_01v8__voff_slope_spectre*(sky130_fd_pr__nfet_01v8__voff_slope/sqrt(l*w*mult))} lvoff = -2.154547359e-09 wvoff = -2.686651451e-08 pvoff = 2.152218983e-13
+ nfactor = 2.686034709e+00 lnfactor = -1.205390299e-08 wnfactor = -1.503083041e-07 pnfactor = 1.204087658e-12
+ eta0 = 0.08
+ etab = -0.07
+ u0 = 3.142325993e-02 lu0 = 3.111395108e-10 wu0 = 3.879809903e-09 pu0 = -3.108032685e-14
+ ua = -7.575504764e-10 lua = -3.273155509e-18 wua = -4.081519935e-17 pua = 3.269618276e-22
+ ub = 1.564807772e-18 lub = 4.551910922e-26 wub = 5.676086919e-25 pub = -4.546991763e-30
+ uc = 4.877037585e-11 luc = 3.778080112e-18 wuc = 4.711144720e-17 puc = -3.773997217e-22
+ ud = 0.0
+ up = 0.0
+ lp = 1.0
+ eu = 1.67
+ vtl = 0.0
+ xn = 3.0
+ vsat = 80000.0
+ a0 = 1.361739852e+00 la0 = 6.177235391e-08 wa0 = 7.702814400e-07 pa0 = -6.170559776e-12
+ ags = 3.816712633e-01 lags = -1.318786275e-08 wags = -1.644484186e-07 pags = 1.317361089e-12
+ a1 = 0.0
+ a2 = 0.42385546
+ b0 = 0.0
+ b1 = 1.950752899e-24 lb1 = 1.254404981e-30 wb1 = 1.564202776e-29 pb1 = -1.253049370e-34
+ keta = -8.288371258e-03 lketa = -4.055290119e-09 wketa = -5.056816706e-08 pketa = 4.050907648e-13
+ dwg = 0.0
+ dwb = 0.0
+ pclm = 6.798002168e-02 lpclm = -3.337615616e-07 wpclm = -4.161899621e-06 ppclm = 3.334008721e-11
+ pdiblc1 = 0.39
+ pdiblc2 = 3.074731372e-03 lpdiblc2 = -1.019510186e-11 wpdiblc2 = -1.271296502e-10 ppdiblc2 = 1.018408422e-15
+ pdiblcb = -0.025
+ drout = 0.56
+ pscbe1 = 7.580421702e+08 lpscbe1 = -2.698040880e+01 wpscbe1 = -3.364370440e+02 ppscbe1 = 2.695125162e-3
+ pscbe2 = 1.0e-12
+ pvag = 0.0
+ delta = 0.01
+ fprout = 0.0
+ pdits = 0.0
+ pditsl = 0.0
+ pditsd = 0.0
+ lambda = 0.0
+ lc = 5.0e-9
* Parameters FOR Asymmetric AND Bias-Dependent RDS Model
+ rdsw = 65.968
+ rsw = 0.0
+ rdw = 0.0
+ rdswmin = 0.0
+ rdwmin = 0.0
+ rswmin = 0.0
+ prwb = 0.0
+ prwg = 0.021507
+ wr = 1.0
* Impact Ionization Current Model Parameters
+ alpha0 = 3.0e-8
+ alpha1 = 0.85
+ beta0 = 13.86
* Gidl Induced Drain Leakage Model Parameters
+ agidl = 0.0
+ bgidl = 2300000000.0
+ cgidl = 0.5
+ egidl = 0.8
* Gate Dielectric Tunneling Current Model Parameters
+ toxref = 4.148e-9
+ dlcig = 0.0
+ aigbacc = 1.0
+ bigbacc = 0.0
+ cigbacc = 0.0
+ nigbacc = 0.0
+ aigbinv = 0.35
+ bigbinv = 0.03
+ cigbinv = 0.006
+ eigbinv = 1.1
+ nigbinv = 0.0
+ aigc = 0.43
+ bigc = 0.054
+ cigc = 0.075
+ aigsd = 0.43
+ bigsd = 0.054
+ cigsd = 0.075
+ nigc = 0.0
+ poxedge = 1.0
+ pigcd = 1.0
+ ntox = 1.0
+ vfbsdoff = 0.0
* Charge AND Capacitance Model Parameters
+ dlc = -6.928e-9
+ dwc = 3.2175e-8
+ xpart = 0.0
+ cgso = 2.4384e-10
+ cgdo = 2.4384e-10
+ cgbo = 1.0e-13
+ cgdl = 0.0
+ cgsl = 0.0
+ clc = 1.0e-7
+ cle = 0.6
+ cf = 1.4067e-12
+ ckappas = 0.6
+ vfbcv = -1.0
+ acde = 0.4
+ moin = 6.9
+ noff = 3.4037
+ voffcv = -0.17287
* High-Speed/RF Model Parameters
+ xrcrg1 = 12.0
+ xrcrg2 = 1.0
+ rbpb = 50.0
+ rbpd = 50.0
+ rbps = 50.0
+ rbdb = 50.0
+ rbsb = 50.0
+ gbmin = 1.0e-12
* Flicker AND Thermal Noise Model Parameters
+ ef = 0.84
+ noia = 2.5e+42
+ noib = 0.0
+ noic = 0.0
+ em = 41000000.0
+ ntnoi = 1.0
+ lintnoi = -1.0e-7
+ af = 1.0
+ kf = 0.0
+ tnoia = 15000000.0
+ tnoib = 9900000.0
+ rnoia = 0.94
+ rnoib = 0.26
* Layout-Dependent Parasitics Model Parameters
+ xl = 0.0
+ xw = 0.0
+ dmcg = 0.0
+ dmdg = 0.0
+ dmcgt = 0.0
+ xgw = 0.0
+ xgl = 0.0
+ ngcon = 1.0
* Asymmetric Source/Drain Junction Diode Model Parameters
+ jss = 0.00275
+ jsws = 6.0e-10
+ ijthsfwd = 0.1
+ ijthsrev = 0.1
+ bvs = 11.7
+ xjbvs = 1.0
+ pbs = 0.729
+ cjs = 0.00163782571
+ mjs = 0.44
+ pbsws = 0.2
+ cjsws = 4.49076474e-11
+ mjsws = 0.0009
+ pbswgs = 0.95578
+ cjswgs = 2.91230478e-10
+ mjswgs = 0.8
* Temperature Dependence Parameters
+ tnom = 30.0
+ kt1 = -3.131867870e-01 lkt1 = 1.255986929e-09 wkt1 = 1.566175415e-08 pkt1 = -1.254629609e-13
+ kt2 = -4.539666594e-02 lkt2 = 6.675302662e-10 wkt2 = 8.323888313e-09 pkt2 = -6.668088796e-14
+ at = 140000.0
+ ute = -1.816357404e+00 lute = 2.369112785e-08 wute = 2.954207655e-07 pute = -2.366552532e-12
+ ua1 = 3.613845672e-10 lua1 = 1.172413201e-16 wua1 = 1.461961658e-15 pua1 = -1.171146198e-20
+ ub1 = -6.204600368e-19 lub1 = -1.534863647e-25 wub1 = -1.913925738e-24 pub1 = 1.533204951e-29
+ uc1 = 1.690921780e-11 luc1 = -8.647681916e-18 wuc1 = -1.078338198e-16 puc1 = 8.638336539e-22
+ kt1l = 0.0
+ prt = 0.0
+ tvoff = 0.0
+ njs = 1.2928
+ tpb = 0.0012287
+ tcj = 0.000792
+ tpbsw = 0.0
+ tcjsw = 1.0e-5
+ tpbswg = 0.0
+ tcjswg = 0.0
+ xtis = 2.0
+ tvfbsdoff = 0.0
* DW AND DL Parameters
+ ll = 0.0
+ wl = 0.0
+ lln = 1.0
+ wln = 1.0
+ lw = 0.0
+ ww = 0.0
+ lwn = 1.0
+ wwn = 1.0
+ lwl = 0.0
+ wwl = 0.0
+ llc = 0.0
+ wlc = 0.0
+ lwc = 0.0
+ wwc = 0.0
+ lwlc = 0.0
+ wwlc = 0.0
* Stress Parameters
+ saref = 3.0e-6
+ sbref = 3.0e-6
+ kvth0 = 9.8e-9
+ lkvth0 = 0.0
+ wkvth0 = 2.0e-7
+ pkvth0 = 0.0
+ llodvth = 0.0
+ wlodvth = 1.0
+ wlod = 0.0
+ stk2 = 0.0
+ lodk2 = 1.0
+ lodeta0 = 1.0
+ ku0 = -2.7e-8
+ lku0 = 0.0
+ wku0 = 0.0
+ pku0 = 0.0
+ tku0 = 0.0
+ llodku0 = 0.0
+ wlodku0 = 1.0
+ kvsat = 0.2
+ steta0 = 0.0
* Well Proximity Effect Parameters
.model sky130_fd_pr__nfet_01v8__model.3 nmos
* Model Flag Parameters
+ lmin = 2.0e-06 lmax = 4.0e-06 wmin = 7.0e-06 wmax = 0.0001
+ level = 54.0
+ version = 4.5
+ binunit = 2.0
+ mobmod = 0.0
+ capmod = 2.0
+ igcmod = 0.0
+ igbmod = 0.0
+ geomod = 0.0
+ diomod = 1.0
+ rdsmod = 0.0
+ rbodymod = 1.0
+ rgatemod = 0.0
+ permod = 1.0
+ acnqsmod = 0.0
+ trnqsmod = 0.0
+ fnoimod = 1.0
+ tnoimod = 1.0
+ tempmod = 0.0
* Process Parameters
+ toxe = {4.363696e-09+sky130_fd_pr__nfet_01v8__toxe_slope_spectre*(4.148e-09*1.052*(sky130_fd_pr__nfet_01v8__toxe_slope/sqrt(l*w*mult)))}
+ toxm = 4.148e-9
+ dtox = 0.0
+ epsrox = 3.9
+ xj = 1.5e-7
+ ngate = 1.0e+23
+ ndep = 1.7e+17
+ nsd = 1.0e+20
+ rsh = 1.0
+ rshg = 0.1
* Basic Model Parameters
+ wint = 5.4034e-8
+ lint = -5.393e-9
+ vth0 = {5.071728966e-01+sky130_fd_pr__nfet_01v8__vth0_slope_spectre*(sky130_fd_pr__nfet_01v8__vth0_slope/sqrt(l*w*mult))} lvth0 = 3.333597610e-08 wvth0 = 7.402623097e-08 pvth0 = -5.554608993e-14
+ k1 = 5.302997219e-01 lk1 = 3.965876745e-08 wk1 = 1.367515665e-07 pk1 = -2.768841837e-13
+ k2 = -2.048316993e-02 lk2 = -2.332856876e-08 wk2 = -6.801314992e-08 pk2 = 1.090573506e-13
+ k3 = 2.0
+ k3b = 0.54
+ w0 = 0.0
+ dvt0 = 0.0
+ dvt1 = 0.53
+ dvt2 = -0.032
+ dvt0w = -3.58
+ dvt1w = 1670600.0
+ dvt2w = 0.068
+ dsub = 5.376480639e-01 ldsub = 8.964883236e-08 wdsub = 2.232778080e-06 pdsub = -8.955195066e-12
+ minv = 0.0
+ voffl = 5.8197729e-9
+ lpe0 = 1.0325e-7
+ lpeb = -7.082e-8
+ vbm = -3.0
+ dvtp0 = 0.0
+ dvtp1 = 0.0
+ phin = 0.0
+ cdsc = 0.0
+ cdscb = 0.0
+ cdscd = 0.0054
+ cit = 0.0
+ voff = {-1.094655827e-01+sky130_fd_pr__nfet_01v8__voff_slope_spectre*(sky130_fd_pr__nfet_01v8__voff_slope/sqrt(l*w*mult))} lvoff = 1.575737635e-08 wvoff = 5.573196081e-08 pvoff = -1.160629101e-13
+ nfactor = 2.666085505e+00 lnfactor = 6.795808584e-08 wnfactor = -1.912644030e-07 pnfactor = 1.368353806e-12
+ eta0 = 7.407673693e-02 leta0 = 2.375694058e-08 weta0 = 5.916861913e-07 peta0 = -2.373126692e-12
+ etab = -6.482185296e-02 letab = -2.076843965e-08 wetab = -5.172551119e-07 petab = 2.074599561e-12
+ u0 = 3.194993327e-02 lu0 = -1.801234574e-09 wu0 = 3.764492127e-09 pu0 = -3.061781193e-14
+ ua = -7.771556207e-10 lua = 7.535888247e-17 wua = 1.365337502e-15 pua = -5.312815741e-21
+ ub = 1.668742330e-18 lub = -3.713401575e-25 wub = -2.134683279e-24 pub = 6.291323040e-30
+ uc = 5.890739593e-11 luc = -3.687933810e-17 wuc = -3.280617428e-16 puc = 1.127339656e-21
+ ud = 0.0
+ up = 0.0
+ lp = 1.0
+ eu = 1.67
+ vtl = 0.0
+ xn = 3.0
+ vsat = 80000.0
+ a0 = 1.490798641e+00 la0 = -4.558548281e-07 wa0 = -1.699489791e-06 pa0 = 3.735164101e-12
+ ags = 3.647656614e-01 lags = 5.461688862e-08 wags = -7.007562172e-07 pags = 3.468376900e-12
+ a1 = 0.0
+ a2 = 0.42385546
+ b0 = 0.0
+ b1 = 4.539228699e-24 lb1 = -9.127417519e-30 wb1 = -3.128405553e-29 pb1 = 6.290554088e-35
+ keta = -1.651832020e-02 lketa = 2.895327386e-08 wketa = 8.733344889e-08 pketa = -1.480031059e-13
+ dwg = 0.0
+ dwb = 0.0
+ pclm = -6.228164149e-01 lpclm = 2.436875115e-06 wpclm = 8.531224325e-06 ppclm = -1.756931660e-11
+ pdiblc1 = 0.39
+ pdiblc2 = 3.181986903e-03 lpdiblc2 = -4.403740832e-10 wpdiblc2 = -1.256119770e-08 ppdiblc2 = 5.088879447e-14
+ pdiblcb = -0.025
+ drout = 0.56
+ pscbe1 = 7.023678574e+08 lpscbe1 = 1.963173455e+02 wpscbe1 = 6.728740879e+02 ppscbe1 = -1.353005796e-3
+ pscbe2 = 1.0e-12
+ pvag = 0.0
+ delta = 0.01
+ fprout = 0.0
+ pdits = 0.0
+ pditsl = 0.0
+ pditsd = 0.0
+ lambda = 0.0
+ lc = 5.0e-9
* Parameters FOR Asymmetric AND Bias-Dependent RDS Model
+ rdsw = 65.968
+ rsw = 0.0
+ rdw = 0.0
+ rdswmin = 0.0
+ rdwmin = 0.0
+ rswmin = 0.0
+ prwb = 0.0
+ prwg = 0.021507
+ wr = 1.0
* Impact Ionization Current Model Parameters
+ alpha0 = 3.0e-8
+ alpha1 = 0.85
+ beta0 = 13.86
* Gidl Induced Drain Leakage Model Parameters
+ agidl = 0.0
+ bgidl = 2300000000.0
+ cgidl = 0.5
+ egidl = 0.8
* Gate Dielectric Tunneling Current Model Parameters
+ toxref = 4.148e-9
+ dlcig = 0.0
+ aigbacc = 1.0
+ bigbacc = 0.0
+ cigbacc = 0.0
+ nigbacc = 0.0
+ aigbinv = 0.35
+ bigbinv = 0.03
+ cigbinv = 0.006
+ eigbinv = 1.1
+ nigbinv = 0.0
+ aigc = 0.43
+ bigc = 0.054
+ cigc = 0.075
+ aigsd = 0.43
+ bigsd = 0.054
+ cigsd = 0.075
+ nigc = 0.0
+ poxedge = 1.0
+ pigcd = 1.0
+ ntox = 1.0
+ vfbsdoff = 0.0
* Charge AND Capacitance Model Parameters
+ dlc = -6.928e-9
+ dwc = 3.2175e-8
+ xpart = 0.0
+ cgso = 2.4384e-10
+ cgdo = 2.4384e-10
+ cgbo = 1.0e-13
+ cgdl = 0.0
+ cgsl = 0.0
+ clc = 1.0e-7
+ cle = 0.6
+ cf = 1.4067e-12
+ ckappas = 0.6
+ vfbcv = -1.0
+ acde = 0.4
+ moin = 6.9
+ noff = 3.4037
+ voffcv = -0.17287
* High-Speed/RF Model Parameters
+ xrcrg1 = 12.0
+ xrcrg2 = 1.0
+ rbpb = 50.0
+ rbpd = 50.0
+ rbps = 50.0
+ rbdb = 50.0
+ rbsb = 50.0
+ gbmin = 1.0e-12
* Flicker AND Thermal Noise Model Parameters
+ ef = 0.84
+ noia = 2.5e+42
+ noib = 0.0
+ noic = 0.0
+ em = 41000000.0
+ ntnoi = 1.0
+ lintnoi = -1.0e-7
+ af = 1.0
+ kf = 0.0
+ tnoia = 15000000.0
+ tnoib = 9900000.0
+ rnoia = 0.94
+ rnoib = 0.26
* Layout-Dependent Parasitics Model Parameters
+ xl = 0.0
+ xw = 0.0
+ dmcg = 0.0
+ dmdg = 0.0
+ dmcgt = 0.0
+ xgw = 0.0
+ xgl = 0.0
+ ngcon = 1.0
* Asymmetric Source/Drain Junction Diode Model Parameters
+ jss = 0.00275
+ jsws = 6.0e-10
+ ijthsfwd = 0.1
+ ijthsrev = 0.1
+ bvs = 11.7
+ xjbvs = 1.0
+ pbs = 0.729
+ cjs = 0.00163782571
+ mjs = 0.44
+ pbsws = 0.2
+ cjsws = 4.49076474e-11
+ mjsws = 0.0009
+ pbswgs = 0.95578
+ cjswgs = 2.91230478e-10
+ mjswgs = 0.8
* Temperature Dependence Parameters
+ tnom = 30.0
+ kt1 = -3.112536839e-01 lkt1 = -6.497275977e-09 wkt1 = 3.446901913e-08 pkt1 = -2.008948760e-13
+ kt2 = -4.402024159e-02 lkt2 = -4.853013239e-09 wkt2 = -1.654486044e-08 pkt2 = 3.306234138e-14
+ at = 1.381328683e+05 lat = 7.488665797e-03 wat = 1.865113957e-01 pat = -7.480572945e-7
+ ute = -1.757166309e+00 lute = -2.137116870e-07 wute = -1.620152226e-06 pute = 5.316400804e-12
+ ua1 = 6.261329075e-10 lua1 = -9.446076166e-16 wua1 = -5.203440883e-15 pua1 = 1.502204122e-20
+ ub1 = -9.508554259e-19 lub1 = 1.171658836e-24 wub1 = 5.193865106e-24 pub1 = -1.317577850e-29
+ uc1 = -4.824542424e-13 luc1 = 6.110659282e-17 wuc1 = 1.704269561e-16 puc1 = -2.522107706e-22
+ kt1l = 0.0
+ prt = 0.0
+ tvoff = 0.0
+ njs = 1.2928
+ tpb = 0.0012287
+ tcj = 0.000792
+ tpbsw = 0.0
+ tcjsw = 1.0e-5
+ tpbswg = 0.0
+ tcjswg = 0.0
+ xtis = 2.0
+ tvfbsdoff = 0.0
* DW AND DL Parameters
+ ll = 0.0
+ wl = 0.0
+ lln = 1.0
+ wln = 1.0
+ lw = 0.0
+ ww = 0.0
+ lwn = 1.0
+ wwn = 1.0
+ lwl = 0.0
+ wwl = 0.0
+ llc = 0.0
+ wlc = 0.0
+ lwc = 0.0
+ wwc = 0.0
+ lwlc = 0.0
+ wwlc = 0.0
* Stress Parameters
+ saref = 3.0e-6
+ sbref = 3.0e-6
+ kvth0 = 9.8e-9
+ lkvth0 = 0.0
+ wkvth0 = 2.0e-7
+ pkvth0 = 0.0
+ llodvth = 0.0
+ wlodvth = 1.0
+ wlod = 0.0
+ stk2 = 0.0
+ lodk2 = 1.0
+ lodeta0 = 1.0
+ ku0 = -2.7e-8
+ lku0 = 0.0
+ wku0 = 0.0
+ pku0 = 0.0
+ tku0 = 0.0
+ llodku0 = 0.0
+ wlodku0 = 1.0
+ kvsat = 0.2
+ steta0 = 0.0
* Well Proximity Effect Parameters
.model sky130_fd_pr__nfet_01v8__model.4 nmos
* Model Flag Parameters
+ lmin = 1.0e-06 lmax = 2.0e-06 wmin = 7.0e-06 wmax = 0.0001
+ level = 54.0
+ version = 4.5
+ binunit = 2.0
+ mobmod = 0.0
+ capmod = 2.0
+ igcmod = 0.0
+ igbmod = 0.0
+ geomod = 0.0
+ diomod = 1.0
+ rdsmod = 0.0
+ rbodymod = 1.0
+ rgatemod = 0.0
+ permod = 1.0
+ acnqsmod = 0.0
+ trnqsmod = 0.0
+ fnoimod = 1.0
+ tnoimod = 1.0
+ tempmod = 0.0
* Process Parameters
+ toxe = {4.363696e-09+sky130_fd_pr__nfet_01v8__toxe_slope_spectre*(4.148e-09*1.052*(sky130_fd_pr__nfet_01v8__toxe_slope/sqrt(l*w*mult)))}
+ toxm = 4.148e-9
+ dtox = 0.0
+ epsrox = 3.9
+ xj = 1.5e-7
+ ngate = 1.0e+23
+ ndep = 1.7e+17
+ nsd = 1.0e+20
+ rsh = 1.0
+ rshg = 0.1
* Basic Model Parameters
+ wint = 5.4034e-8
+ lint = -5.393e-9
+ vth0 = {5.256581141e-01+sky130_fd_pr__nfet_01v8__vth0_slope_spectre*(sky130_fd_pr__nfet_01v8__vth0_slope/sqrt(l*w*mult))} lvth0 = -3.833840380e-09 wvth0 = -1.440555601e-07 pvth0 = 3.829697225e-13
+ k1 = 5.525508708e-01 lk1 = -5.083531333e-09 wk1 = -2.534878473e-07 pk1 = 5.078037662e-13
+ k2 = -3.311163166e-02 lk2 = 2.064565301e-09 wk2 = 8.878661258e-08 pk2 = -2.062334167e-13
+ k3 = 2.0
+ k3b = 0.54
+ w0 = 0.0
+ dvt0 = 0.0
+ dvt1 = 0.53
+ dvt2 = -0.032
+ dvt0w = -3.58
+ dvt1w = 1670600.0
+ dvt2w = 0.068
+ dsub = 5.822320387e-01 wdsub = -2.220801299e-6
+ minv = 0.0
+ voffl = 5.8197729e-9
+ lpe0 = 1.0325e-7
+ lpeb = -7.082e-8
+ vbm = -3.0
+ dvtp0 = 0.0
+ dvtp1 = 0.0
+ phin = 0.0
+ cdsc = 0.0
+ cdscb = 0.0
+ cdscd = 0.0054
+ cit = 0.0
+ voff = {-1.030312872e-01+sky130_fd_pr__nfet_01v8__voff_slope_spectre*(sky130_fd_pr__nfet_01v8__voff_slope/sqrt(l*w*mult))} lvoff = 2.819384981e-09 wvoff = 1.380733451e-07 pvoff = -2.816338128e-13
+ nfactor = 2.691123862e+00 lnfactor = 1.761130745e-08 wnfactor = 1.364137978e-06 pnfactor = -1.759227527e-12
+ eta0 = 8.604364330e-02 leta0 = -3.059472010e-10 weta0 = -6.037112053e-07 peta0 = 3.056165700e-14
+ etab = -7.513627443e-02 letab = -2.834536917e-11 wetab = 5.130723758e-07 petab = 2.831473690e-15
+ u0 = 3.078800555e-02 lu0 = 5.351534303e-10 wu0 = 1.512308431e-08 pu0 = -5.345751007e-14
+ ua = -7.785201420e-10 lua = 7.810264280e-17 wua = 2.603165964e-15 pua = -7.801823884e-21
+ ub = 1.523558700e-18 lub = -7.940694862e-26 wub = -2.950677856e-24 pub = 7.932113512e-30
+ uc = 3.955982554e-11 luc = 2.024485577e-18 wuc = 3.331570204e-16 puc = -2.022297756e-22
+ ud = 0.0
+ up = 0.0
+ lp = 1.0
+ eu = 1.67
+ vtl = 0.0
+ xn = 3.0
+ vsat = 8.152059407e+04 lvsat = -3.057589258e-03 wvsat = -1.518950790e-01 pvsat = 3.054284983e-7
+ a0 = 1.249877415e+00 la0 = 2.858620026e-08 wa0 = 1.578181166e-06 pa0 = -2.855530773e-12
+ ags = 4.177671586e-01 lags = -5.195777995e-08 wags = -1.557031386e-06 pags = 5.190163022e-12
+ a1 = 0.0
+ a2 = 0.42385546
+ b0 = 0.0
+ b1 = 0.0
+ keta = -6.984076421e-03 lketa = 9.781949960e-09 wketa = 4.996770669e-07 pketa = -9.771378803e-13
+ dwg = 0.0
+ dwb = 0.0
+ pclm = 5.765408299e-01 lpclm = 2.522435828e-08 wpclm = 1.046784548e-06 ppclm = -2.519709882e-12
+ pdiblc1 = 4.137574096e-01 lpdiblc1 = -4.777106666e-08 wpdiblc1 = -2.373173546e-06 ppdiblc1 = 4.771944142e-12
+ pdiblc2 = 2.902975442e-03 lpdiblc2 = 1.206582560e-10 wpdiblc2 = 1.874078111e-08 ppdiblc2 = -1.205278630e-14
+ pdiblcb = -2.314169863e-02 lpdiblcb = -3.736646369e-09 wpdiblcb = -1.856293136e-07 ppdiblcb = 3.732608250e-13
+ drout = 5.375281665e-01 ldrout = 4.518604815e-08 wdrout = 2.244754862e-06 pdrout = -4.513721650e-12
+ pscbe1 = 7.596311908e+08 lpscbe1 = 8.117303628e+01 wpscbe1 = 4.032518339e+03 ppscbe1 = -8.108531420e-3
+ pscbe2 = 1.0e-12
+ pvag = 0.0
+ delta = 0.01
+ fprout = 0.0
+ pdits = 0.0
+ pditsl = 0.0
+ pditsd = 0.0
+ lambda = 0.0
+ lc = 5.0e-9
* Parameters FOR Asymmetric AND Bias-Dependent RDS Model
+ rdsw = 65.968
+ rsw = 0.0
+ rdw = 0.0
+ rdswmin = 0.0
+ rdwmin = 0.0
+ rswmin = 0.0
+ prwb = 0.0
+ prwg = 0.021507
+ wr = 1.0
* Impact Ionization Current Model Parameters
+ alpha0 = 2.255049513e-07 lalpha0 = -3.931186189e-13 walpha0 = -1.952936730e-11 palpha0 = 3.926937835e-17
+ alpha1 = 8.525468078e-01 lalpha1 = -5.121085457e-09 walpha1 = -2.544055510e-07 palpha1 = 5.115551203e-13
+ beta0 = 1.406763974e+01 lbeta0 = -4.175190849e-07 wbeta0 = -2.074153492e-05 pbeta0 = 4.170678804e-11
* Gidl Induced Drain Leakage Model Parameters
+ agidl = 0.0
+ bgidl = 2300000000.0
+ cgidl = 0.5
+ egidl = 0.8
* Gate Dielectric Tunneling Current Model Parameters
+ toxref = 4.148e-9
+ dlcig = 0.0
+ aigbacc = 1.0
+ bigbacc = 0.0
+ cigbacc = 0.0
+ nigbacc = 0.0
+ aigbinv = 0.35
+ bigbinv = 0.03
+ cigbinv = 0.006
+ eigbinv = 1.1
+ nigbinv = 0.0
+ aigc = 0.43
+ bigc = 0.054
+ cigc = 0.075
+ aigsd = 0.43
+ bigsd = 0.054
+ cigsd = 0.075
+ nigc = 0.0
+ poxedge = 1.0
+ pigcd = 1.0
+ ntox = 1.0
+ vfbsdoff = 0.0
* Charge AND Capacitance Model Parameters
+ dlc = -6.928e-9
+ dwc = 3.2175e-8
+ xpart = 0.0
+ cgso = 2.4384e-10
+ cgdo = 2.4384e-10
+ cgbo = 1.0e-13
+ cgdl = 0.0
+ cgsl = 0.0
+ clc = 1.0e-7
+ cle = 0.6
+ cf = 1.4067e-12
+ ckappas = 0.6
+ vfbcv = -1.0
+ acde = 0.4
+ moin = 6.9
+ noff = 3.4037
+ voffcv = -0.17287
* High-Speed/RF Model Parameters
+ xrcrg1 = 12.0
+ xrcrg2 = 1.0
+ rbpb = 50.0
+ rbpd = 50.0
+ rbps = 50.0
+ rbdb = 50.0
+ rbsb = 50.0
+ gbmin = 1.0e-12
* Flicker AND Thermal Noise Model Parameters
+ ef = 0.84
+ noia = 2.5e+42
+ noib = 0.0
+ noic = 0.0
+ em = 41000000.0
+ ntnoi = 1.0
+ lintnoi = -1.0e-7