**************************************************
* OpenRAM generated memory.
* Words: 64
* Data bits: 8
* Banks: 1
* Column mux: 2:1
* Trimmed: False
* LVS: False
**************************************************
* Copyright 2020 The SkyWater PDK Authors
*
* Licensed under the Apache License, Version 2.0 (the "License");
* you may not use this file except in compliance with the License.
* You may obtain a copy of the License at
*
*     https://www.apache.org/licenses/LICENSE-2.0
*
* Unless required by applicable law or agreed to in writing, software
* distributed under the License is distributed on an "AS IS" BASIS,
* WITHOUT WARRANTIES OR CONDITIONS OF ANY KIND, either express or implied.
* See the License for the specific language governing permissions and
* limitations under the License.
*
* SPDX-License-Identifier: Apache-2.0

* SPICE3 file created from sky130_fd_bd_sram__openram_dff.ext - technology: EFS8A

.subckt sky130_fd_bd_sram__openram_dff D Q CLK VDD GND
X1000 a_511_725# a_n8_115# VDD VDD sky130_fd_pr__pfet_01v8 W=3 L=0.15
X1001 a_353_115# CLK a_11_624# GND sky130_fd_pr__nfet_01v8 W=1 L=0.15
X1002 a_353_725# a_203_89# a_11_624# VDD sky130_fd_pr__pfet_01v8 W=3 L=0.15
X1003 a_11_624# a_203_89# a_161_115# GND sky130_fd_pr__nfet_01v8 W=1 L=0.15
X1004 a_11_624# CLK a_161_725# VDD sky130_fd_pr__pfet_01v8 W=3 L=0.15
X1005 GND Q a_703_115# GND sky130_fd_pr__nfet_01v8 W=1 L=0.15
X1006 VDD Q a_703_725# VDD sky130_fd_pr__pfet_01v8 W=3 L=0.15
X1007 a_203_89# CLK GND GND sky130_fd_pr__nfet_01v8 W=1 L=0.15
X1008 a_203_89# CLK VDD VDD sky130_fd_pr__pfet_01v8 W=3 L=0.15
X1009 a_161_115# D GND GND sky130_fd_pr__nfet_01v8 W=1 L=0.15
X1010 a_161_725# D VDD VDD sky130_fd_pr__pfet_01v8 W=3 L=0.15
X1011 GND a_11_624# a_n8_115# GND sky130_fd_pr__nfet_01v8 W=1 L=0.15
X1012 a_703_115# a_203_89# ON GND sky130_fd_pr__nfet_01v8 W=1 L=0.15
X1013 VDD a_11_624# a_n8_115# VDD sky130_fd_pr__pfet_01v8 W=3 L=0.15
X1014 a_703_725# CLK ON VDD sky130_fd_pr__pfet_01v8 W=3 L=0.15
X1015 Q ON VDD VDD sky130_fd_pr__pfet_01v8 W=3 L=0.15
X1016 Q ON GND GND sky130_fd_pr__nfet_01v8 W=1 L=0.15
X1017 ON a_203_89# a_511_725# VDD sky130_fd_pr__pfet_01v8 W=3 L=0.15
X1018 ON CLK a_511_115# GND sky130_fd_pr__nfet_01v8 W=1 L=0.15
X1019 GND a_n8_115# a_353_115# GND sky130_fd_pr__nfet_01v8 W=1 L=0.15
X1020 VDD a_n8_115# a_353_725# VDD sky130_fd_pr__pfet_01v8 W=3 L=0.15
X1021 a_511_115# a_n8_115# GND GND sky130_fd_pr__nfet_01v8 W=1 L=0.15
.ends

.SUBCKT myconfig_col_addr_dff
+ din_0 dout_0 clk vdd gnd
* INPUT : din_0 
* OUTPUT: dout_0 
* INPUT : clk 
* POWER : vdd 
* GROUND: gnd 
* rows: 1 cols: 1
Xdff_r0_c0
+ din_0 dout_0 CLK VDD GND
+ sky130_fd_bd_sram__openram_dff
.ENDS myconfig_col_addr_dff

* spice ptx X{0} {1} sky130_fd_pr__nfet_01v8 m=1 w=2.88 l=0.15 pd=6.06 ps=6.06 as=1.08u ad=1.08u

.SUBCKT myconfig_column_mux_0
+ bl br bl_out br_out sel gnd
* INOUT : bl 
* INOUT : br 
* INOUT : bl_out 
* INOUT : br_out 
* INOUT : sel 
* INOUT : gnd 
Xmux_tx1 bl sel bl_out gnd sky130_fd_pr__nfet_01v8 m=1 w=2.88 l=0.15 pd=6.06 ps=6.06 as=1.08u ad=1.08u
Xmux_tx2 br sel br_out gnd sky130_fd_pr__nfet_01v8 m=1 w=2.88 l=0.15 pd=6.06 ps=6.06 as=1.08u ad=1.08u
.ENDS myconfig_column_mux_0

.SUBCKT myconfig_column_mux_array_0
+ bl_0 br_0 bl_1 br_1 bl_2 br_2 bl_3 br_3 bl_4 br_4 bl_5 br_5 bl_6 br_6
+ bl_7 br_7 bl_8 br_8 bl_9 br_9 bl_10 br_10 bl_11 br_11 bl_12 br_12
+ bl_13 br_13 bl_14 br_14 bl_15 br_15 sel_0 sel_1 bl_out_0 br_out_0
+ bl_out_1 br_out_1 bl_out_2 br_out_2 bl_out_3 br_out_3 bl_out_4
+ br_out_4 bl_out_5 br_out_5 bl_out_6 br_out_6 bl_out_7 br_out_7 gnd
* INOUT : bl_0 
* INOUT : br_0 
* INOUT : bl_1 
* INOUT : br_1 
* INOUT : bl_2 
* INOUT : br_2 
* INOUT : bl_3 
* INOUT : br_3 
* INOUT : bl_4 
* INOUT : br_4 
* INOUT : bl_5 
* INOUT : br_5 
* INOUT : bl_6 
* INOUT : br_6 
* INOUT : bl_7 
* INOUT : br_7 
* INOUT : bl_8 
* INOUT : br_8 
* INOUT : bl_9 
* INOUT : br_9 
* INOUT : bl_10 
* INOUT : br_10 
* INOUT : bl_11 
* INOUT : br_11 
* INOUT : bl_12 
* INOUT : br_12 
* INOUT : bl_13 
* INOUT : br_13 
* INOUT : bl_14 
* INOUT : br_14 
* INOUT : bl_15 
* INOUT : br_15 
* INOUT : sel_0 
* INOUT : sel_1 
* INOUT : bl_out_0 
* INOUT : br_out_0 
* INOUT : bl_out_1 
* INOUT : br_out_1 
* INOUT : bl_out_2 
* INOUT : br_out_2 
* INOUT : bl_out_3 
* INOUT : br_out_3 
* INOUT : bl_out_4 
* INOUT : br_out_4 
* INOUT : bl_out_5 
* INOUT : br_out_5 
* INOUT : bl_out_6 
* INOUT : br_out_6 
* INOUT : bl_out_7 
* INOUT : br_out_7 
* INOUT : gnd 
* cols: 16 word_size: 8 bl: bl1 br: br1
XXMUX0
+ bl_0 br_0 bl_out_0 br_out_0 sel_0 gnd
+ myconfig_column_mux_0
XXMUX1
+ bl_1 br_1 bl_out_0 br_out_0 sel_1 gnd
+ myconfig_column_mux_0
XXMUX2
+ bl_2 br_2 bl_out_1 br_out_1 sel_0 gnd
+ myconfig_column_mux_0
XXMUX3
+ bl_3 br_3 bl_out_1 br_out_1 sel_1 gnd
+ myconfig_column_mux_0
XXMUX4
+ bl_4 br_4 bl_out_2 br_out_2 sel_0 gnd
+ myconfig_column_mux_0
XXMUX5
+ bl_5 br_5 bl_out_2 br_out_2 sel_1 gnd
+ myconfig_column_mux_0
XXMUX6
+ bl_6 br_6 bl_out_3 br_out_3 sel_0 gnd
+ myconfig_column_mux_0
XXMUX7
+ bl_7 br_7 bl_out_3 br_out_3 sel_1 gnd
+ myconfig_column_mux_0
XXMUX8
+ bl_8 br_8 bl_out_4 br_out_4 sel_0 gnd
+ myconfig_column_mux_0
XXMUX9
+ bl_9 br_9 bl_out_4 br_out_4 sel_1 gnd
+ myconfig_column_mux_0
XXMUX10
+ bl_10 br_10 bl_out_5 br_out_5 sel_0 gnd
+ myconfig_column_mux_0
XXMUX11
+ bl_11 br_11 bl_out_5 br_out_5 sel_1 gnd
+ myconfig_column_mux_0
XXMUX12
+ bl_12 br_12 bl_out_6 br_out_6 sel_0 gnd
+ myconfig_column_mux_0
XXMUX13
+ bl_13 br_13 bl_out_6 br_out_6 sel_1 gnd
+ myconfig_column_mux_0
XXMUX14
+ bl_14 br_14 bl_out_7 br_out_7 sel_0 gnd
+ myconfig_column_mux_0
XXMUX15
+ bl_15 br_15 bl_out_7 br_out_7 sel_1 gnd
+ myconfig_column_mux_0
.ENDS myconfig_column_mux_array_0

* spice ptx X{0} {1} sky130_fd_pr__pfet_01v8 m=1 w=0.55 l=0.15 pd=1.40 ps=1.40 as=0.21u ad=0.21u

.SUBCKT myconfig_precharge_1
+ bl br en_bar vdd
* OUTPUT: bl 
* OUTPUT: br 
* INPUT : en_bar 
* POWER : vdd 
Xlower_pmos bl en_bar br vdd sky130_fd_pr__pfet_01v8 m=1 w=0.55 l=0.15 pd=1.40 ps=1.40 as=0.21u ad=0.21u
Xupper_pmos1 bl en_bar vdd vdd sky130_fd_pr__pfet_01v8 m=1 w=0.55 l=0.15 pd=1.40 ps=1.40 as=0.21u ad=0.21u
Xupper_pmos2 br en_bar vdd vdd sky130_fd_pr__pfet_01v8 m=1 w=0.55 l=0.15 pd=1.40 ps=1.40 as=0.21u ad=0.21u
.ENDS myconfig_precharge_1

.SUBCKT myconfig_precharge_array_0
+ bl_0 br_0 bl_1 br_1 bl_2 br_2 bl_3 br_3 bl_4 br_4 bl_5 br_5 bl_6 br_6
+ bl_7 br_7 bl_8 br_8 bl_9 br_9 bl_10 br_10 bl_11 br_11 bl_12 br_12
+ bl_13 br_13 bl_14 br_14 bl_15 br_15 bl_16 br_16 en_bar vdd
* OUTPUT: bl_0 
* OUTPUT: br_0 
* OUTPUT: bl_1 
* OUTPUT: br_1 
* OUTPUT: bl_2 
* OUTPUT: br_2 
* OUTPUT: bl_3 
* OUTPUT: br_3 
* OUTPUT: bl_4 
* OUTPUT: br_4 
* OUTPUT: bl_5 
* OUTPUT: br_5 
* OUTPUT: bl_6 
* OUTPUT: br_6 
* OUTPUT: bl_7 
* OUTPUT: br_7 
* OUTPUT: bl_8 
* OUTPUT: br_8 
* OUTPUT: bl_9 
* OUTPUT: br_9 
* OUTPUT: bl_10 
* OUTPUT: br_10 
* OUTPUT: bl_11 
* OUTPUT: br_11 
* OUTPUT: bl_12 
* OUTPUT: br_12 
* OUTPUT: bl_13 
* OUTPUT: br_13 
* OUTPUT: bl_14 
* OUTPUT: br_14 
* OUTPUT: bl_15 
* OUTPUT: br_15 
* OUTPUT: bl_16 
* OUTPUT: br_16 
* INPUT : en_bar 
* POWER : vdd 
* cols: 17 size: 1 bl: bl1 br: br1
Xpre_column_0
+ bl_0 br_0 en_bar vdd
+ myconfig_precharge_1
Xpre_column_1
+ bl_1 br_1 en_bar vdd
+ myconfig_precharge_1
Xpre_column_2
+ bl_2 br_2 en_bar vdd
+ myconfig_precharge_1
Xpre_column_3
+ bl_3 br_3 en_bar vdd
+ myconfig_precharge_1
Xpre_column_4
+ bl_4 br_4 en_bar vdd
+ myconfig_precharge_1
Xpre_column_5
+ bl_5 br_5 en_bar vdd
+ myconfig_precharge_1
Xpre_column_6
+ bl_6 br_6 en_bar vdd
+ myconfig_precharge_1
Xpre_column_7
+ bl_7 br_7 en_bar vdd
+ myconfig_precharge_1
Xpre_column_8
+ bl_8 br_8 en_bar vdd
+ myconfig_precharge_1
Xpre_column_9
+ bl_9 br_9 en_bar vdd
+ myconfig_precharge_1
Xpre_column_10
+ bl_10 br_10 en_bar vdd
+ myconfig_precharge_1
Xpre_column_11
+ bl_11 br_11 en_bar vdd
+ myconfig_precharge_1
Xpre_column_12
+ bl_12 br_12 en_bar vdd
+ myconfig_precharge_1
Xpre_column_13
+ bl_13 br_13 en_bar vdd
+ myconfig_precharge_1
Xpre_column_14
+ bl_14 br_14 en_bar vdd
+ myconfig_precharge_1
Xpre_column_15
+ bl_15 br_15 en_bar vdd
+ myconfig_precharge_1
Xpre_column_16
+ bl_16 br_16 en_bar vdd
+ myconfig_precharge_1
.ENDS myconfig_precharge_array_0
* Copyright 2020 The SkyWater PDK Authors
*
* Licensed under the Apache License, Version 2.0 (the "License");
* you may not use this file except in compliance with the License.
* You may obtain a copy of the License at
*
*     https://www.apache.org/licenses/LICENSE-2.0
*
* Unless required by applicable law or agreed to in writing, software
* distributed under the License is distributed on an "AS IS" BASIS,
* WITHOUT WARRANTIES OR CONDITIONS OF ANY KIND, either express or implied.
* See the License for the specific language governing permissions and
* limitations under the License.
*
* SPDX-License-Identifier: Apache-2.0

*********************** "sky130_fd_bd_sram__openram_sense_amp" ******************************

.SUBCKT sky130_fd_bd_sram__openram_sense_amp BL BR DOUT EN VDD GND
X1000 GND EN a_56_432# GND sky130_fd_pr__nfet_01v8 W=0.65 L=0.15
X1001 a_56_432# dint_bar dint GND sky130_fd_pr__nfet_01v8 W=0.65 L=0.15
X1002 dint_bar dint a_56_432# GND sky130_fd_pr__nfet_01v8 W=0.65 L=0.15

X1003 VDD dint_bar dint VDD sky130_fd_pr__pfet_01v8 W=1.26 L=0.15
X1004 dint_bar dint VDD VDD sky130_fd_pr__pfet_01v8 W=1.26 L=0.15

X1005 BL EN dint VDD sky130_fd_pr__pfet_01v8 W=2 L=0.15
X1006 dint_bar EN BR VDD sky130_fd_pr__pfet_01v8 W=2 L=0.15

X1007 VDD dint_bar DOUT VDD sky130_fd_pr__pfet_01v8 W=1.26 L=0.15
X1008 DOUT dint_bar GND GND sky130_fd_pr__nfet_01v8 W=0.65 L=0.15

.ENDS sky130_fd_bd_sram__openram_sense_amp

.SUBCKT myconfig_sense_amp_array
+ data_0 bl_0 br_0 data_1 bl_1 br_1 data_2 bl_2 br_2 data_3 bl_3 br_3
+ data_4 bl_4 br_4 data_5 bl_5 br_5 data_6 bl_6 br_6 data_7 bl_7 br_7 en
+ vdd gnd
* OUTPUT: data_0 
* INPUT : bl_0 
* INPUT : br_0 
* OUTPUT: data_1 
* INPUT : bl_1 
* INPUT : br_1 
* OUTPUT: data_2 
* INPUT : bl_2 
* INPUT : br_2 
* OUTPUT: data_3 
* INPUT : bl_3 
* INPUT : br_3 
* OUTPUT: data_4 
* INPUT : bl_4 
* INPUT : br_4 
* OUTPUT: data_5 
* INPUT : bl_5 
* INPUT : br_5 
* OUTPUT: data_6 
* INPUT : bl_6 
* INPUT : br_6 
* OUTPUT: data_7 
* INPUT : bl_7 
* INPUT : br_7 
* INPUT : en 
* POWER : vdd 
* GROUND: gnd 
* words_per_row: 2
Xsa_d0
+ bl_0 br_0 data_0 en vdd gnd
+ sky130_fd_bd_sram__openram_sense_amp
Xsa_d1
+ bl_1 br_1 data_1 en vdd gnd
+ sky130_fd_bd_sram__openram_sense_amp
Xsa_d2
+ bl_2 br_2 data_2 en vdd gnd
+ sky130_fd_bd_sram__openram_sense_amp
Xsa_d3
+ bl_3 br_3 data_3 en vdd gnd
+ sky130_fd_bd_sram__openram_sense_amp
Xsa_d4
+ bl_4 br_4 data_4 en vdd gnd
+ sky130_fd_bd_sram__openram_sense_amp
Xsa_d5
+ bl_5 br_5 data_5 en vdd gnd
+ sky130_fd_bd_sram__openram_sense_amp
Xsa_d6
+ bl_6 br_6 data_6 en vdd gnd
+ sky130_fd_bd_sram__openram_sense_amp
Xsa_d7
+ bl_7 br_7 data_7 en vdd gnd
+ sky130_fd_bd_sram__openram_sense_amp
.ENDS myconfig_sense_amp_array
* Copyright 2020 The SkyWater PDK Authors
*
* Licensed under the Apache License, Version 2.0 (the "License");
* you may not use this file except in compliance with the License.
* You may obtain a copy of the License at
*
*     https://www.apache.org/licenses/LICENSE-2.0
*
* Unless required by applicable law or agreed to in writing, software
* distributed under the License is distributed on an "AS IS" BASIS,
* WITHOUT WARRANTIES OR CONDITIONS OF ANY KIND, either express or implied.
* See the License for the specific language governing permissions and
* limitations under the License.
*
* SPDX-License-Identifier: Apache-2.0

*********************** "sky130_fd_bd_sram__openram_write_driver" ******************************

.SUBCKT sky130_fd_bd_sram__openram_write_driver DIN BL BR EN VDD GND

**** Inverter to conver Data_in to data_in_bar ******
* din_bar = inv(DIN)
X_1 din_bar DIN GND GND sky130_fd_pr__nfet_01v8 W=0.36 L=0.15
X_2 din_bar DIN VDD VDD sky130_fd_pr__pfet_01v8 W=0.55 L=0.15

**** 2input nand gate follwed by inverter to drive BL ******
* din_bar_gated = nand(EN, DIN)
X_3 din_bar_gated EN net_7 GND sky130_fd_pr__nfet_01v8 W=0.55 L=0.15
X_4 net_7 DIN GND GND sky130_fd_pr__nfet_01v8 W=0.55 L=0.15
X_5 din_bar_gated EN VDD VDD sky130_fd_pr__pfet_01v8 W=0.55 L=0.15
X_6 din_bar_gated DIN VDD VDD sky130_fd_pr__pfet_01v8 W=0.55 L=0.15
* din_bar_gated_bar = inv(din_bar_gated)
X_7 din_bar_gated_bar din_bar_gated VDD VDD sky130_fd_pr__pfet_01v8 W=0.55 L=0.15
X_8 din_bar_gated_bar din_bar_gated GND GND sky130_fd_pr__nfet_01v8 W=0.36 L=0.15

**** 2input nand gate follwed by inverter to drive BR******
* din_gated = nand(EN, din_bar)
X_9 din_gated EN VDD VDD sky130_fd_pr__pfet_01v8 W=0.55 L=0.15
X_10 din_gated EN net_8 GND sky130_fd_pr__nfet_01v8 W=0.55 L=0.15
X_11 net_8 din_bar GND GND sky130_fd_pr__nfet_01v8 W=0.55 L=0.15
X_12 din_gated din_bar VDD VDD sky130_fd_pr__pfet_01v8 W=0.55 L=0.15
* din_gated_bar = inv(din_gated)
X_13 din_gated_bar din_gated VDD VDD sky130_fd_pr__pfet_01v8 W=0.55 L=0.15
X_14 din_gated_bar din_gated GND GND sky130_fd_pr__nfet_01v8 W=0.36 L=0.15

************************************************
* pull down with EN enable
X_15 BL din_gated_bar GND GND sky130_fd_pr__nfet_01v8 W=1 L=0.15
X_16 BR din_bar_gated_bar GND GND sky130_fd_pr__nfet_01v8 W=1 L=0.15

.ENDS sky130_fd_bd_sram__openram_write_driver

.SUBCKT myconfig_write_driver_array
+ data_0 data_1 data_2 data_3 data_4 data_5 data_6 data_7 bl_0 br_0 bl_1
+ br_1 bl_2 br_2 bl_3 br_3 bl_4 br_4 bl_5 br_5 bl_6 br_6 bl_7 br_7 en
+ vdd gnd
* INPUT : data_0 
* INPUT : data_1 
* INPUT : data_2 
* INPUT : data_3 
* INPUT : data_4 
* INPUT : data_5 
* INPUT : data_6 
* INPUT : data_7 
* OUTPUT: bl_0 
* OUTPUT: br_0 
* OUTPUT: bl_1 
* OUTPUT: br_1 
* OUTPUT: bl_2 
* OUTPUT: br_2 
* OUTPUT: bl_3 
* OUTPUT: br_3 
* OUTPUT: bl_4 
* OUTPUT: br_4 
* OUTPUT: bl_5 
* OUTPUT: br_5 
* OUTPUT: bl_6 
* OUTPUT: br_6 
* OUTPUT: bl_7 
* OUTPUT: br_7 
* INPUT : en 
* POWER : vdd 
* GROUND: gnd 
* word_size 8
Xwrite_driver0
+ data_0 bl_0 br_0 en vdd gnd
+ sky130_fd_bd_sram__openram_write_driver
Xwrite_driver2
+ data_1 bl_1 br_1 en vdd gnd
+ sky130_fd_bd_sram__openram_write_driver
Xwrite_driver4
+ data_2 bl_2 br_2 en vdd gnd
+ sky130_fd_bd_sram__openram_write_driver
Xwrite_driver6
+ data_3 bl_3 br_3 en vdd gnd
+ sky130_fd_bd_sram__openram_write_driver
Xwrite_driver8
+ data_4 bl_4 br_4 en vdd gnd
+ sky130_fd_bd_sram__openram_write_driver
Xwrite_driver10
+ data_5 bl_5 br_5 en vdd gnd
+ sky130_fd_bd_sram__openram_write_driver
Xwrite_driver12
+ data_6 bl_6 br_6 en vdd gnd
+ sky130_fd_bd_sram__openram_write_driver
Xwrite_driver14
+ data_7 bl_7 br_7 en vdd gnd
+ sky130_fd_bd_sram__openram_write_driver
.ENDS myconfig_write_driver_array

.SUBCKT myconfig_port_data_0
+ rbl_bl rbl_br bl_0 br_0 bl_1 br_1 bl_2 br_2 bl_3 br_3 bl_4 br_4 bl_5
+ br_5 bl_6 br_6 bl_7 br_7 bl_8 br_8 bl_9 br_9 bl_10 br_10 bl_11 br_11
+ bl_12 br_12 bl_13 br_13 bl_14 br_14 bl_15 br_15 dout_0 dout_1 dout_2
+ dout_3 dout_4 dout_5 dout_6 dout_7 din_0 din_1 din_2 din_3 din_4 din_5
+ din_6 din_7 sel_0 sel_1 s_en p_en_bar w_en vdd gnd
* INOUT : rbl_bl 
* INOUT : rbl_br 
* INOUT : bl_0 
* INOUT : br_0 
* INOUT : bl_1 
* INOUT : br_1 
* INOUT : bl_2 
* INOUT : br_2 
* INOUT : bl_3 
* INOUT : br_3 
* INOUT : bl_4 
* INOUT : br_4 
* INOUT : bl_5 
* INOUT : br_5 
* INOUT : bl_6 
* INOUT : br_6 
* INOUT : bl_7 
* INOUT : br_7 
* INOUT : bl_8 
* INOUT : br_8 
* INOUT : bl_9 
* INOUT : br_9 
* INOUT : bl_10 
* INOUT : br_10 
* INOUT : bl_11 
* INOUT : br_11 
* INOUT : bl_12 
* INOUT : br_12 
* INOUT : bl_13 
* INOUT : br_13 
* INOUT : bl_14 
* INOUT : br_14 
* INOUT : bl_15 
* INOUT : br_15 
* OUTPUT: dout_0 
* OUTPUT: dout_1 
* OUTPUT: dout_2 
* OUTPUT: dout_3 
* OUTPUT: dout_4 
* OUTPUT: dout_5 
* OUTPUT: dout_6 
* OUTPUT: dout_7 
* INPUT : din_0 
* INPUT : din_1 
* INPUT : din_2 
* INPUT : din_3 
* INPUT : din_4 
* INPUT : din_5 
* INPUT : din_6 
* INPUT : din_7 
* INPUT : sel_0 
* INPUT : sel_1 
* INPUT : s_en 
* INPUT : p_en_bar 
* INPUT : w_en 
* POWER : vdd 
* GROUND: gnd 
Xprecharge_array1
+ bl_0 br_0 bl_1 br_1 bl_2 br_2 bl_3 br_3 bl_4 br_4 bl_5 br_5 bl_6 br_6
+ bl_7 br_7 bl_8 br_8 bl_9 br_9 bl_10 br_10 bl_11 br_11 bl_12 br_12
+ bl_13 br_13 bl_14 br_14 bl_15 br_15 rbl_bl rbl_br p_en_bar vdd
+ myconfig_precharge_array_0
Xsense_amp_array1
+ dout_0 bl_out_0 br_out_0 dout_1 bl_out_1 br_out_1 dout_2 bl_out_2
+ br_out_2 dout_3 bl_out_3 br_out_3 dout_4 bl_out_4 br_out_4 dout_5
+ bl_out_5 br_out_5 dout_6 bl_out_6 br_out_6 dout_7 bl_out_7 br_out_7
+ s_en vdd gnd
+ myconfig_sense_amp_array
Xwrite_driver_array1
+ din_0 din_1 din_2 din_3 din_4 din_5 din_6 din_7 bl_out_0 br_out_0
+ bl_out_1 br_out_1 bl_out_2 br_out_2 bl_out_3 br_out_3 bl_out_4
+ br_out_4 bl_out_5 br_out_5 bl_out_6 br_out_6 bl_out_7 br_out_7 w_en
+ vdd gnd
+ myconfig_write_driver_array
Xcolumn_mux_array1
+ bl_0 br_0 bl_1 br_1 bl_2 br_2 bl_3 br_3 bl_4 br_4 bl_5 br_5 bl_6 br_6
+ bl_7 br_7 bl_8 br_8 bl_9 br_9 bl_10 br_10 bl_11 br_11 bl_12 br_12
+ bl_13 br_13 bl_14 br_14 bl_15 br_15 sel_0 sel_1 bl_out_0 br_out_0
+ bl_out_1 br_out_1 bl_out_2 br_out_2 bl_out_3 br_out_3 bl_out_4
+ br_out_4 bl_out_5 br_out_5 bl_out_6 br_out_6 bl_out_7 br_out_7 gnd
+ myconfig_column_mux_array_0
.ENDS myconfig_port_data_0

* spice ptx X{0} {1} sky130_fd_pr__nfet_01v8 m=2 w=0.74 l=0.15 pd=1.78 ps=1.78 as=0.28u ad=0.28u

* spice ptx X{0} {1} sky130_fd_pr__pfet_01v8 m=2 w=1.26 l=0.15 pd=2.82 ps=2.82 as=0.47u ad=0.47u

.SUBCKT myconfig_pinv_0
+ A Z vdd gnd
* INPUT : A 
* OUTPUT: Z 
* POWER : vdd 
* GROUND: gnd 
Xpinv_pmos Z A vdd vdd sky130_fd_pr__pfet_01v8 m=2 w=1.26 l=0.15 pd=2.82 ps=2.82 as=0.47u ad=0.47u
Xpinv_nmos Z A gnd gnd sky130_fd_pr__nfet_01v8 m=2 w=0.74 l=0.15 pd=1.78 ps=1.78 as=0.28u ad=0.28u
.ENDS myconfig_pinv_0

* spice ptx X{0} {1} sky130_fd_pr__pfet_01v8 m=3 w=1.68 l=0.15 pd=3.66 ps=3.66 as=0.63u ad=0.63u

* spice ptx X{0} {1} sky130_fd_pr__nfet_01v8 m=3 w=1.68 l=0.15 pd=3.66 ps=3.66 as=0.63u ad=0.63u

.SUBCKT myconfig_pinv_1
+ A Z vdd gnd
* INPUT : A 
* OUTPUT: Z 
* POWER : vdd 
* GROUND: gnd 
Xpinv_pmos Z A vdd vdd sky130_fd_pr__pfet_01v8 m=3 w=1.68 l=0.15 pd=3.66 ps=3.66 as=0.63u ad=0.63u
Xpinv_nmos Z A gnd gnd sky130_fd_pr__nfet_01v8 m=3 w=1.68 l=0.15 pd=3.66 ps=3.66 as=0.63u ad=0.63u
.ENDS myconfig_pinv_1

* spice ptx X{0} {1} sky130_fd_pr__pfet_01v8 m=1 w=1.12 l=0.15 pd=2.54 ps=2.54 as=0.42u ad=0.42u

* spice ptx X{0} {1} sky130_fd_pr__nfet_01v8 m=1 w=0.36 l=0.15 pd=1.02 ps=1.02 as=0.14u ad=0.14u

.SUBCKT myconfig_pinv
+ A Z vdd gnd
* INPUT : A 
* OUTPUT: Z 
* POWER : vdd 
* GROUND: gnd 
Xpinv_pmos Z A vdd vdd sky130_fd_pr__pfet_01v8 m=1 w=1.12 l=0.15 pd=2.54 ps=2.54 as=0.42u ad=0.42u
Xpinv_nmos Z A gnd gnd sky130_fd_pr__nfet_01v8 m=1 w=0.36 l=0.15 pd=1.02 ps=1.02 as=0.14u ad=0.14u
.ENDS myconfig_pinv

.SUBCKT myconfig_pinvbuf
+ A Zb Z vdd gnd
* INOUT : A 
* INOUT : Zb 
* INOUT : Z 
* INOUT : vdd 
* INOUT : gnd 
Xbuf_inv1
+ A zb_int vdd gnd
+ myconfig_pinv
Xbuf_inv2
+ zb_int z_int vdd gnd
+ myconfig_pinv_0
Xbuf_inv3
+ z_int Zb vdd gnd
+ myconfig_pinv_1
Xbuf_inv4
+ zb_int Z vdd gnd
+ myconfig_pinv_1
.ENDS myconfig_pinvbuf

.SUBCKT myconfig_column_decoder
+ in_0 out_0 out_1 vdd gnd
* INPUT : in_0 
* OUTPUT: out_0 
* OUTPUT: out_1 
* POWER : vdd 
* GROUND: gnd 
Xcolumn_decoder
+ in_0 out_0 out_1 vdd gnd
+ myconfig_pinvbuf
.ENDS myconfig_column_decoder
* Copyright 2020 The SkyWater PDK Authors
*
* Licensed under the Apache License, Version 2.0 (the "License");
* you may not use this file except in compliance with the License.
* You may obtain a copy of the License at
*
*     https://www.apache.org/licenses/LICENSE-2.0
*
* Unless required by applicable law or agreed to in writing, software
* distributed under the License is distributed on an "AS IS" BASIS,
* WITHOUT WARRANTIES OR CONDITIONS OF ANY KIND, either express or implied.
* See the License for the specific language governing permissions and
* limitations under the License.
*
* SPDX-License-Identifier: Apache-2.0


.SUBCKT sky130_fd_bd_sram__openram_dp_cell_replica BL0 BR0 BL1 BR1 WL0 WL1 VDD GND
** N=9 EP=8 IP=0 FDC=16
*.SEEDPROM

* Bitcell Core
X0 Q WL1 BL1 GND sky130_fd_pr__special_nfet_latch W=0.21 L=0.15
X1 GND VDD Q GND sky130_fd_pr__special_nfet_latch W=0.21 L=0.15
X2 GND VDD Q GND sky130_fd_pr__special_nfet_latch W=0.21 L=0.15
X3 BL0 WL0 Q GND sky130_fd_pr__special_nfet_latch W=0.21 L=0.15
X4 VDD WL1 BR1 GND sky130_fd_pr__special_nfet_latch W=0.21 L=0.15
X5 GND Q VDD GND sky130_fd_pr__special_nfet_latch W=0.21 L=0.15
X6 GND Q VDD GND sky130_fd_pr__special_nfet_latch W=0.21 L=0.15
X7 BR0 WL0 VDD GND sky130_fd_pr__special_nfet_latch W=0.21 L=0.15
X8 VDD Q VDD VDD sky130_fd_pr__special_pfet_pass W=0.14 L=0.15
X9 Q VDD VDD VDD sky130_fd_pr__special_pfet_pass W=0.14 L=0.15

* drainOnly PMOS
*X10 VDD WL1 VDD VDD sky130_fd_pr__special_pfet_pass L=0.08 W=0.14
*X11 Q WL0 Q VDD sky130_fd_pr__special_pfet_pass L=0.08 W=0.14

* drainOnly NMOS
X12 BL1 GND BL1 GND sky130_fd_pr__special_nfet_latch W=0.21 L=0.08
X14 BR1 GND BR1 GND sky130_fd_pr__special_nfet_latch W=0.21 L=0.08

.ENDS
* Copyright 2020 The SkyWater PDK Authors
*
* Licensed under the Apache License, Version 2.0 (the "License");
* you may not use this file except in compliance with the License.
* You may obtain a copy of the License at
*
*     https://www.apache.org/licenses/LICENSE-2.0
*
* Unless required by applicable law or agreed to in writing, software
* distributed under the License is distributed on an "AS IS" BASIS,
* WITHOUT WARRANTIES OR CONDITIONS OF ANY KIND, either express or implied.
* See the License for the specific language governing permissions and
* limitations under the License.
*
* SPDX-License-Identifier: Apache-2.0


.SUBCKT sky130_fd_bd_sram__openram_dp_cell_dummy BL0 BR0 BL1 BR1 WL0 WL1 VDD GND
** N=14 EP=6 IP=0 FDC=16
*.SEEDPROM

* Bitcell Core
X1 1 GND GND GND sky130_fd_pr__special_nfet_latch W=0.21 L=0.15
X2 1 WL1 BL1 GND sky130_fd_pr__special_nfet_latch W=0.21 L=0.15
X3 2 GND GND GND sky130_fd_pr__special_nfet_latch W=0.21 L=0.15
X4 2 WL1 BR1 GND sky130_fd_pr__special_nfet_latch W=0.21 L=0.15
X5 3 GND GND GND sky130_fd_pr__special_nfet_latch W=0.21 L=0.15
X6 3 WL0 BL0 GND sky130_fd_pr__special_nfet_latch W=0.21 L=0.15
X7 4 GND GND GND sky130_fd_pr__special_nfet_latch W=0.21 L=0.15
X8 4 WL0 BR0 GND sky130_fd_pr__special_nfet_latch W=0.21 L=0.15

* drainOnly NMOS
X9 BL1 GND BL1 GND sky130_fd_pr__special_nfet_latch W=0.21 L=0.08
X10 BR1 GND BR1 GND sky130_fd_pr__special_nfet_latch W=0.21 L=0.08

.ENDS

.SUBCKT myconfig_replica_column_0
+ bl_0_0 bl_1_0 br_0_0 br_1_0 wl_0_0 wl_1_0 wl_0_1 wl_1_1 wl_0_2 wl_1_2
+ wl_0_3 wl_1_3 wl_0_4 wl_1_4 wl_0_5 wl_1_5 wl_0_6 wl_1_6 wl_0_7 wl_1_7
+ wl_0_8 wl_1_8 wl_0_9 wl_1_9 wl_0_10 wl_1_10 wl_0_11 wl_1_11 wl_0_12
+ wl_1_12 wl_0_13 wl_1_13 wl_0_14 wl_1_14 wl_0_15 wl_1_15 wl_0_16
+ wl_1_16 wl_0_17 wl_1_17 wl_0_18 wl_1_18 wl_0_19 wl_1_19 wl_0_20
+ wl_1_20 wl_0_21 wl_1_21 wl_0_22 wl_1_22 wl_0_23 wl_1_23 wl_0_24
+ wl_1_24 wl_0_25 wl_1_25 wl_0_26 wl_1_26 wl_0_27 wl_1_27 wl_0_28
+ wl_1_28 wl_0_29 wl_1_29 wl_0_30 wl_1_30 wl_0_31 wl_1_31 wl_0_32
+ wl_1_32 wl_0_33 wl_1_33 vdd gnd
* OUTPUT: bl_0_0 
* OUTPUT: bl_1_0 
* OUTPUT: br_0_0 
* OUTPUT: br_1_0 
* INPUT : wl_0_0 
* INPUT : wl_1_0 
* INPUT : wl_0_1 
* INPUT : wl_1_1 
* INPUT : wl_0_2 
* INPUT : wl_1_2 
* INPUT : wl_0_3 
* INPUT : wl_1_3 
* INPUT : wl_0_4 
* INPUT : wl_1_4 
* INPUT : wl_0_5 
* INPUT : wl_1_5 
* INPUT : wl_0_6 
* INPUT : wl_1_6 
* INPUT : wl_0_7 
* INPUT : wl_1_7 
* INPUT : wl_0_8 
* INPUT : wl_1_8 
* INPUT : wl_0_9 
* INPUT : wl_1_9 
* INPUT : wl_0_10 
* INPUT : wl_1_10 
* INPUT : wl_0_11 
* INPUT : wl_1_11 
* INPUT : wl_0_12 
* INPUT : wl_1_12 
* INPUT : wl_0_13 
* INPUT : wl_1_13 
* INPUT : wl_0_14 
* INPUT : wl_1_14 
* INPUT : wl_0_15 
* INPUT : wl_1_15 
* INPUT : wl_0_16 
* INPUT : wl_1_16 
* INPUT : wl_0_17 
* INPUT : wl_1_17 
* INPUT : wl_0_18 
* INPUT : wl_1_18 
* INPUT : wl_0_19 
* INPUT : wl_1_19 
* INPUT : wl_0_20 
* INPUT : wl_1_20 
* INPUT : wl_0_21 
* INPUT : wl_1_21 
* INPUT : wl_0_22 
* INPUT : wl_1_22 
* INPUT : wl_0_23 
* INPUT : wl_1_23 
* INPUT : wl_0_24 
* INPUT : wl_1_24 
* INPUT : wl_0_25 
* INPUT : wl_1_25 
* INPUT : wl_0_26 
* INPUT : wl_1_26 
* INPUT : wl_0_27 
* INPUT : wl_1_27 
* INPUT : wl_0_28 
* INPUT : wl_1_28 
* INPUT : wl_0_29 
* INPUT : wl_1_29 
* INPUT : wl_0_30 
* INPUT : wl_1_30 
* INPUT : wl_0_31 
* INPUT : wl_1_31 
* INPUT : wl_0_32 
* INPUT : wl_1_32 
* INPUT : wl_0_33 
* INPUT : wl_1_33 
* POWER : vdd 
* GROUND: gnd 
Xrbc_0
+ bl_0_0 br_0_0 bl_1_0 br_1_0 wl_0_0 wl_1_0 vdd gnd
+ sky130_fd_bd_sram__openram_dp_cell_dummy
Xrbc_1
+ bl_0_0 br_0_0 bl_1_0 br_1_0 wl_0_1 wl_1_1 vdd gnd
+ sky130_fd_bd_sram__openram_dp_cell_replica
Xrbc_2
+ bl_0_0 br_0_0 bl_1_0 br_1_0 wl_0_2 wl_1_2 vdd gnd
+ sky130_fd_bd_sram__openram_dp_cell_replica
Xrbc_3
+ bl_0_0 br_0_0 bl_1_0 br_1_0 wl_0_3 wl_1_3 vdd gnd
+ sky130_fd_bd_sram__openram_dp_cell_replica
Xrbc_4
+ bl_0_0 br_0_0 bl_1_0 br_1_0 wl_0_4 wl_1_4 vdd gnd
+ sky130_fd_bd_sram__openram_dp_cell_replica
Xrbc_5
+ bl_0_0 br_0_0 bl_1_0 br_1_0 wl_0_5 wl_1_5 vdd gnd
+ sky130_fd_bd_sram__openram_dp_cell_replica
Xrbc_6
+ bl_0_0 br_0_0 bl_1_0 br_1_0 wl_0_6 wl_1_6 vdd gnd
+ sky130_fd_bd_sram__openram_dp_cell_replica
Xrbc_7
+ bl_0_0 br_0_0 bl_1_0 br_1_0 wl_0_7 wl_1_7 vdd gnd
+ sky130_fd_bd_sram__openram_dp_cell_replica
Xrbc_8
+ bl_0_0 br_0_0 bl_1_0 br_1_0 wl_0_8 wl_1_8 vdd gnd
+ sky130_fd_bd_sram__openram_dp_cell_replica
Xrbc_9
+ bl_0_0 br_0_0 bl_1_0 br_1_0 wl_0_9 wl_1_9 vdd gnd
+ sky130_fd_bd_sram__openram_dp_cell_replica
Xrbc_10
+ bl_0_0 br_0_0 bl_1_0 br_1_0 wl_0_10 wl_1_10 vdd gnd
+ sky130_fd_bd_sram__openram_dp_cell_replica
Xrbc_11
+ bl_0_0 br_0_0 bl_1_0 br_1_0 wl_0_11 wl_1_11 vdd gnd
+ sky130_fd_bd_sram__openram_dp_cell_replica
Xrbc_12
+ bl_0_0 br_0_0 bl_1_0 br_1_0 wl_0_12 wl_1_12 vdd gnd
+ sky130_fd_bd_sram__openram_dp_cell_replica
Xrbc_13
+ bl_0_0 br_0_0 bl_1_0 br_1_0 wl_0_13 wl_1_13 vdd gnd
+ sky130_fd_bd_sram__openram_dp_cell_replica
Xrbc_14
+ bl_0_0 br_0_0 bl_1_0 br_1_0 wl_0_14 wl_1_14 vdd gnd
+ sky130_fd_bd_sram__openram_dp_cell_replica
Xrbc_15
+ bl_0_0 br_0_0 bl_1_0 br_1_0 wl_0_15 wl_1_15 vdd gnd
+ sky130_fd_bd_sram__openram_dp_cell_replica
Xrbc_16
+ bl_0_0 br_0_0 bl_1_0 br_1_0 wl_0_16 wl_1_16 vdd gnd
+ sky130_fd_bd_sram__openram_dp_cell_replica
Xrbc_17
+ bl_0_0 br_0_0 bl_1_0 br_1_0 wl_0_17 wl_1_17 vdd gnd
+ sky130_fd_bd_sram__openram_dp_cell_replica
Xrbc_18
+ bl_0_0 br_0_0 bl_1_0 br_1_0 wl_0_18 wl_1_18 vdd gnd
+ sky130_fd_bd_sram__openram_dp_cell_replica
Xrbc_19
+ bl_0_0 br_0_0 bl_1_0 br_1_0 wl_0_19 wl_1_19 vdd gnd
+ sky130_fd_bd_sram__openram_dp_cell_replica
Xrbc_20
+ bl_0_0 br_0_0 bl_1_0 br_1_0 wl_0_20 wl_1_20 vdd gnd
+ sky130_fd_bd_sram__openram_dp_cell_replica
Xrbc_21
+ bl_0_0 br_0_0 bl_1_0 br_1_0 wl_0_21 wl_1_21 vdd gnd
+ sky130_fd_bd_sram__openram_dp_cell_replica
Xrbc_22
+ bl_0_0 br_0_0 bl_1_0 br_1_0 wl_0_22 wl_1_22 vdd gnd
+ sky130_fd_bd_sram__openram_dp_cell_replica
Xrbc_23
+ bl_0_0 br_0_0 bl_1_0 br_1_0 wl_0_23 wl_1_23 vdd gnd
+ sky130_fd_bd_sram__openram_dp_cell_replica
Xrbc_24
+ bl_0_0 br_0_0 bl_1_0 br_1_0 wl_0_24 wl_1_24 vdd gnd
+ sky130_fd_bd_sram__openram_dp_cell_replica
Xrbc_25
+ bl_0_0 br_0_0 bl_1_0 br_1_0 wl_0_25 wl_1_25 vdd gnd
+ sky130_fd_bd_sram__openram_dp_cell_replica
Xrbc_26
+ bl_0_0 br_0_0 bl_1_0 br_1_0 wl_0_26 wl_1_26 vdd gnd
+ sky130_fd_bd_sram__openram_dp_cell_replica
Xrbc_27
+ bl_0_0 br_0_0 bl_1_0 br_1_0 wl_0_27 wl_1_27 vdd gnd
+ sky130_fd_bd_sram__openram_dp_cell_replica
Xrbc_28
+ bl_0_0 br_0_0 bl_1_0 br_1_0 wl_0_28 wl_1_28 vdd gnd
+ sky130_fd_bd_sram__openram_dp_cell_replica
Xrbc_29
+ bl_0_0 br_0_0 bl_1_0 br_1_0 wl_0_29 wl_1_29 vdd gnd
+ sky130_fd_bd_sram__openram_dp_cell_replica
Xrbc_30
+ bl_0_0 br_0_0 bl_1_0 br_1_0 wl_0_30 wl_1_30 vdd gnd
+ sky130_fd_bd_sram__openram_dp_cell_replica
Xrbc_31
+ bl_0_0 br_0_0 bl_1_0 br_1_0 wl_0_31 wl_1_31 vdd gnd
+ sky130_fd_bd_sram__openram_dp_cell_replica
Xrbc_32
+ bl_0_0 br_0_0 bl_1_0 br_1_0 wl_0_32 wl_1_32 vdd gnd
+ sky130_fd_bd_sram__openram_dp_cell_replica
Xrbc_33
+ bl_0_0 br_0_0 bl_1_0 br_1_0 wl_0_33 wl_1_33 vdd gnd
+ sky130_fd_bd_sram__openram_dp_cell_replica
.ENDS myconfig_replica_column_0

.SUBCKT myconfig_replica_column
+ bl_0_0 bl_1_0 br_0_0 br_1_0 wl_0_0 wl_1_0 wl_0_1 wl_1_1 wl_0_2 wl_1_2
+ wl_0_3 wl_1_3 wl_0_4 wl_1_4 wl_0_5 wl_1_5 wl_0_6 wl_1_6 wl_0_7 wl_1_7
+ wl_0_8 wl_1_8 wl_0_9 wl_1_9 wl_0_10 wl_1_10 wl_0_11 wl_1_11 wl_0_12
+ wl_1_12 wl_0_13 wl_1_13 wl_0_14 wl_1_14 wl_0_15 wl_1_15 wl_0_16
+ wl_1_16 wl_0_17 wl_1_17 wl_0_18 wl_1_18 wl_0_19 wl_1_19 wl_0_20
+ wl_1_20 wl_0_21 wl_1_21 wl_0_22 wl_1_22 wl_0_23 wl_1_23 wl_0_24
+ wl_1_24 wl_0_25 wl_1_25 wl_0_26 wl_1_26 wl_0_27 wl_1_27 wl_0_28
+ wl_1_28 wl_0_29 wl_1_29 wl_0_30 wl_1_30 wl_0_31 wl_1_31 wl_0_32
+ wl_1_32 wl_0_33 wl_1_33 vdd gnd
* OUTPUT: bl_0_0 
* OUTPUT: bl_1_0 
* OUTPUT: br_0_0 
* OUTPUT: br_1_0 
* INPUT : wl_0_0 
* INPUT : wl_1_0 
* INPUT : wl_0_1 
* INPUT : wl_1_1 
* INPUT : wl_0_2 
* INPUT : wl_1_2 
* INPUT : wl_0_3 
* INPUT : wl_1_3 
* INPUT : wl_0_4 
* INPUT : wl_1_4 
* INPUT : wl_0_5 
* INPUT : wl_1_5 
* INPUT : wl_0_6 
* INPUT : wl_1_6 
* INPUT : wl_0_7 
* INPUT : wl_1_7 
* INPUT : wl_0_8 
* INPUT : wl_1_8 
* INPUT : wl_0_9 
* INPUT : wl_1_9 
* INPUT : wl_0_10 
* INPUT : wl_1_10 
* INPUT : wl_0_11 
* INPUT : wl_1_11 
* INPUT : wl_0_12 
* INPUT : wl_1_12 
* INPUT : wl_0_13 
* INPUT : wl_1_13 
* INPUT : wl_0_14 
* INPUT : wl_1_14 
* INPUT : wl_0_15 
* INPUT : wl_1_15 
* INPUT : wl_0_16 
* INPUT : wl_1_16 
* INPUT : wl_0_17 
* INPUT : wl_1_17 
* INPUT : wl_0_18 
* INPUT : wl_1_18 
* INPUT : wl_0_19 
* INPUT : wl_1_19 
* INPUT : wl_0_20 
* INPUT : wl_1_20 
* INPUT : wl_0_21 
* INPUT : wl_1_21 
* INPUT : wl_0_22 
* INPUT : wl_1_22 
* INPUT : wl_0_23 
* INPUT : wl_1_23 
* INPUT : wl_0_24 
* INPUT : wl_1_24 
* INPUT : wl_0_25 
* INPUT : wl_1_25 
* INPUT : wl_0_26 
* INPUT : wl_1_26 
* INPUT : wl_0_27 
* INPUT : wl_1_27 
* INPUT : wl_0_28 
* INPUT : wl_1_28 
* INPUT : wl_0_29 
* INPUT : wl_1_29 
* INPUT : wl_0_30 
* INPUT : wl_1_30 
* INPUT : wl_0_31 
* INPUT : wl_1_31 
* INPUT : wl_0_32 
* INPUT : wl_1_32 
* INPUT : wl_0_33 
* INPUT : wl_1_33 
* POWER : vdd 