* Copyright 2020 The SkyWater PDK Authors
*
* Licensed under the Apache License, Version 2.0 (the "License");
* you may not use this file except in compliance with the License.
* You may obtain a copy of the License at
*
*     https://www.apache.org/licenses/LICENSE-2.0
*
* Unless required by applicable law or agreed to in writing, software
* distributed under the License is distributed on an "AS IS" BASIS,
* WITHOUT WARRANTIES OR CONDITIONS OF ANY KIND, either express or implied.
* See the License for the specific language governing permissions and
* limitations under the License.

* SKY130 Spice File.
.param sky130_fd_pr__pfet_g5v0d10v5__toxe_slope_spectre = 0.0
.param sky130_fd_pr__pfet_g5v0d10v5__vth0_slope_spectre = 0.0
.param sky130_fd_pr__pfet_g5v0d10v5__voff_slope_spectre = 0.0
.param sky130_fd_pr__pfet_g5v0d10v5__nfactor_slope_spectre = 0.0
* statistics {
*   process {
*   }
*   mismatch {
*     vary sky130_fd_pr__pfet_g5v0d10v5__toxe_slope_spectre dist=gauss std = 1.0
*     vary sky130_fd_pr__pfet_g5v0d10v5__vth0_slope_spectre dist=gauss std = 1.0
*     vary sky130_fd_pr__pfet_g5v0d10v5__voff_slope_spectre dist=gauss std = 1.0
*     vary sky130_fd_pr__pfet_g5v0d10v5__nfactor_slope_spectre dist=gauss std = 1.0
*   }
* }
.subckt  sky130_fd_pr__pfet_g5v0d10v5 d g s b
+ 
.param  l = 1 w = 1 ad = 0 as = 0 pd = 0 ps = 0 nrd = 0 nrs = 0 sa = 0 sb = 0 sd = 0 mult = 1 nf = 1.0
msky130_fd_pr__pfet_g5v0d10v5 d g s b sky130_fd_pr__pfet_g5v0d10v5__model l = {l} w = {w} ad = {ad} as = {as} pd = {pd} ps = {ps} nrd = {nrd} nrs = {nrs} sa = {sa} sb = {sb} sd = {sd} nf = {nf}
.model sky130_fd_pr__pfet_g5v0d10v5__model.0 pmos
* DC IV MOS Parameters
+ lmin = 2.0e-05 lmax = 1.0e-04 wmin = 2.0e-05 wmax = 1.0e-4
+ level = 54.0
+ tnom = 30.0
+ version = 4.5
+ toxm = 1.175e-8
+ xj = 1.5e-7
+ lln = 1.0
+ lwn = 1.0
+ wln = 1.0
+ wwn = 1.0
+ lint = 6.27e-8
+ ll = 0.0
+ lw = 0.0
+ lwl = 0.0
+ wint = -1.9898e-8
+ wl = 0.0
+ ww = 0.0
+ wwl = 0.0
+ xl = 0.0
+ xw = 0.0
+ mobmod = 0.0
+ binunit = 2.0
+ dwg = -4.7338e-9
+ dwb = 0.0
* BSIM4 - Model Selectors
+ igcmod = 0.0
+ igbmod = 0.0
+ rgatemod = 0.0
+ rbodymod = 1.0
+ trnqsmod = 0.0
+ acnqsmod = 0.0
+ fnoimod = 1.0
+ tnoimod = 1.0
+ permod = 1.0
+ geomod = 0.0
+ rdsmod = 0.0
+ tempmod = 0.0
+ lintnoi = 0.0
+ vfbsdoff = 0.0
+ lambda = 0.0
+ vtl = 0.0
+ lc = 5.0e-9
+ xn = 3.0
+ rnoia = 0.577
+ rnoib = 0.37
+ tnoia = 1.5
+ tnoib = 3.5
* BSIM4 - Process Parameters
+ epsrox = 3.9
+ toxe = {1.1045e-08+sky130_fd_pr__pfet_g5v0d10v5__toxe_slope_spectre*(1.1045e-08*(sky130_fd_pr__pfet_g5v0d10v5__toxe_slope/sqrt(l*w*mult)))}
+ dtox = 0.0
+ ndep = 1.7000000000000000e+17
+ nsd = 1.0e+20
+ rshg = 0.1
+ rsh = 1.0
* Threshold Voltage Parameters
+ vth0 = {-0.964555+sky130_fd_pr__pfet_g5v0d10v5__vth0_slope_spectre*(sky130_fd_pr__pfet_g5v0d10v5__vth0_slope/sqrt(l*w*mult))}
+ k1 = 0.59521
+ k2 = 0.02039548
+ k3 = -2.2405
+ dvt0 = 4.657
+ dvt1 = 0.34864
+ dvt2 = -0.030206
+ dvt0w = -2.2
+ dvt1w = 1016300.0
+ dvt2w = 0.0
+ w0 = 0.0
+ k3b = -0.172
* NEW BSIM4 Parameters for Level 54
+ phin = 0.0
+ lpe0 = 0.0
+ lpeb = 0.0
+ vbm = -3.0
+ dvtp0 = 0.0
+ dvtp1 = 0.0
* Mobility Parameters
+ vsat = 200000.0
+ ua = 2.7054732e-9
+ ub = -5.157e-20
+ uc = -3.9972e-11
+ rdsw = 788.47
+ prwb = 0.053538
+ prwg = 0.0
+ wr = 1.0
+ u0 = 0.0209529
+ a0 = 0.8941253
+ keta = -0.0079259
+ a1 = 0.0
+ a2 = 0.5
+ ags = 0.1386898
+ b0 = 0.0
+ b1 = 0.0
* BSIM4 - Mobility Parameters
+ eu = 1.67
+ rdswmin = 0.0
+ rdw = 0.0
+ rdwmin = 0.0
+ rsw = 0.0
+ rswmin = 0.0
* Subthreshold Current Parameters
+ voff = {-0.093204657+sky130_fd_pr__pfet_g5v0d10v5__voff_slope_spectre*(sky130_fd_pr__pfet_g5v0d10v5__voff_slope/sqrt(l*w*mult))}
+ nfactor = {1.79934+sky130_fd_pr__pfet_g5v0d10v5__nfactor_slope_spectre*(sky130_fd_pr__pfet_g5v0d10v5__nfactor_slope/sqrt(l*w*mult))}
+ up = 0.0
+ ud = 0.0
+ lp = 1.0
+ tvfbsdoff = 0.0
+ tvoff = 0.0
+ cit = 1.0e-5
+ cdsc = 0.0
+ cdscb = 0.0
+ cdscd = 0.0
+ eta0 = 0.080000000000001
+ etab = -0.07
+ dsub = 0.56
* BSIM4 - Sub-threshold parameters
+ voffl = 0.0
+ minv = 0.0
* Rout Parameters
+ pclm = 0.08353125
+ pdiblc1 = 0.39
+ pdiblc2 = 0.0029407877
+ pdiblcb = -0.025
+ drout = 0.56
+ pscbe1 = 333712830.0
+ pscbe2 = 1.5000958e-8
+ pvag = 0.0
+ delta = 0.01
+ alpha0 = 5.0667189e-5
+ alpha1 = 0.0
+ beta0 = 38.266046
* BSIM4 - Rout Parameters
+ fprout = 0.0
+ pdits = 0.0
+ pditsl = 0.0
+ pditsd = 0.0
* BSIM4 - Gate Induced Drain Leakage Model Parameters
+ agidl = 7.3657e-9
+ bgidl = 1704700000.0
+ cgidl = 700.0
+ egidl = 0.69350825
* BSIM4 - Gate Leakage Current Parameters
+ aigbacc = 0.43
+ bigbacc = 0.054
+ cigbacc = 0.075
+ nigbacc = 1.0
+ aigbinv = 0.35
+ bigbinv = 0.03
+ cigbinv = 0.006
+ eigbinv = 1.1
+ nigbinv = 3.0
+ aigc = 0.43
+ bigc = 0.054
+ cigc = 0.075
+ nigc = 1.0
+ aigsd = 0.43
+ bigsd = 0.054
+ cigsd = 0.075
+ dlcig = 0.0
+ poxedge = 1.0
+ pigcd = 1.0
+ ntox = 1.0
+ toxref = 1.175e-8
* Temperature Effects Parameters
+ kt1 = -0.57573
+ kt2 = -0.019032
+ at = 430000.0
+ ute = -1.3864
+ ua1 = 7.0656e-10
+ ub1 = -3.145e-18
+ uc1 = -1.092e-10
+ kt1l = 0.0
+ prt = 0.0
* BSIM4 - High Speed RF Model Parameters
+ xrcrg1 = 12.0
+ xrcrg2 = 1.0
+ rbpb = 50.0
+ rbpd = 50.0
+ rbps = 50.0
+ rbdb = 50.0
+ rbsb = 50.0
+ gbmin = 1.0e-12
* BSIM4 - Flicker and Thermal Noise Parameters
+ noia = 3.0000000e+40
+ noib = 8.5300000e+24
+ noic = 8.4000000e+7
+ em = 4.1000000e+7
+ af = 1.0
+ ef = 0.88
+ kf = 0.0
+ ntnoi = 1.0
* BSIM4 - Layout Dependent Parasitic Model Parameters
+ dmcg = 0.0
+ dmcgt = 0.0
+ dmdg = 0.0
+ xgw = 0.0
+ xgl = 0.0
+ ngcon = 1.0
* Diode DC IV Parameters
* BSIM4 - Diode DC IV parameters
+ diomod = 1.0
+ njs = 1.3632
+ jss = 2.1483e-5
+ jsws = 4.02e-12
+ xtis = 10.0
+ bvs = 12.69
+ xjbvs = 1.0
+ ijthsrev = 0.1
+ ijthsfwd = 0.1
* Diode and FET Capacitance Parameters
+ tpb = 0.001671
+ tpbsw = 0.0
+ tpbswg = 0.0
+ tcj = 0.00096
+ tcjsw = 3.0e-5
+ tcjswg = 0.0
+ cgdo = 1.38397e-10
+ cgso = 1.38397e-10
+ cgbo = 0.0
+ capmod = 2.0
+ xpart = 0.0
+ cgsl = 7.0035e-12
+ cgdl = 7.0035e-12
+ cf = 1.2e-11
+ clc = 1.0e-7
+ cle = 0.6
+ dlc = 6.2308e-8
+ dwc = -3.2175e-8
+ vfbcv = -0.1446893
+ acde = 0.401
+ moin = 15.773
+ noff = 4.0
+ voffcv = 0.0
+ ngate = 1.0e+23
+ lwc = 0.0
+ llc = 0.0
+ lwlc = 0.0
+ wlc = 0.0
+ wwc = 0.0
+ wwlc = 0.0
* BSIM4 - FET and Diode capacitance parameters
+ ckappas = 0.6
+ cjs = 0.0007229086434
+ mjs = 0.33956
+ pbs = 0.6587
+ cjsws = 9.322438612e-11
+ mjsws = 0.24676
+ pbsws = 1.0
+ cjswgs = 1.3787656e-10
+ mjswgs = 0.81
+ pbswgs = 3.0
* Stress Parameters
+ saref = 3.0e-6
+ sbref = 3.0e-6
+ wlod = {0+sky130_fd_pr__pfet_g5v0d10v5__wlod_diff}
+ kvth0 = {0+sky130_fd_pr__pfet_g5v0d10v5__kvth0_diff}
+ lkvth0 = {0+sky130_fd_pr__pfet_g5v0d10v5__lkvth0_diff}
+ wkvth0 = {0+sky130_fd_pr__pfet_g5v0d10v5__wkvth0_diff}
+ pkvth0 = 0.0
+ llodvth = 0.0
+ wlodvth = 1.0
+ stk2 = 0.0
+ lodk2 = 1.0
+ lodeta0 = 1.0
+ ku0 = {0+sky130_fd_pr__pfet_g5v0d10v5__ku0_diff}
+ lku0 = {0+sky130_fd_pr__pfet_g5v0d10v5__lku0_diff}
+ wku0 = {0+sky130_fd_pr__pfet_g5v0d10v5__wku0_diff}
+ pku0 = 0.0
+ llodku0 = 0.0
+ wlodku0 = 1.0
+ kvsat = {0+sky130_fd_pr__pfet_g5v0d10v5__kvsat_diff}
+ steta0 = 0.0
+ tku0 = 0.0
.model sky130_fd_pr__pfet_g5v0d10v5__model.1 pmos
* DC IV MOS Parameters
+ lmin = 8e-06 lmax = 2.0e-05 wmin = 2.0e-05 wmax = 1.0e-4
+ level = 54.0
+ tnom = 30.0
+ version = 4.5
+ toxm = 1.175e-8
+ xj = 1.5e-7
+ lln = 1.0
+ lwn = 1.0
+ wln = 1.0
+ wwn = 1.0
+ lint = 6.27e-8
+ ll = 0.0
+ lw = 0.0
+ lwl = 0.0
+ wint = -1.9898e-8
+ wl = 0.0
+ ww = 0.0
+ wwl = 0.0
+ xl = 0.0
+ xw = 0.0
+ mobmod = 0.0
+ binunit = 2.0
+ dwg = -4.7338e-9
+ dwb = 0.0
* BSIM4 - Model Selectors
+ igcmod = 0.0
+ igbmod = 0.0
+ rgatemod = 0.0
+ rbodymod = 1.0
+ trnqsmod = 0.0
+ acnqsmod = 0.0
+ fnoimod = 1.0
+ tnoimod = 1.0
+ permod = 1.0
+ geomod = 0.0
+ rdsmod = 0.0
+ tempmod = 0.0
+ lintnoi = 0.0
+ vfbsdoff = 0.0
+ lambda = 0.0
+ vtl = 0.0
+ lc = 5.0e-9
+ xn = 3.0
+ rnoia = 0.577
+ rnoib = 0.37
+ tnoia = 1.5
+ tnoib = 3.5
* BSIM4 - Process Parameters
+ epsrox = 3.9
+ toxe = {1.1045e-08+sky130_fd_pr__pfet_g5v0d10v5__toxe_slope_spectre*(1.1045e-08*(sky130_fd_pr__pfet_g5v0d10v5__toxe_slope/sqrt(l*w*mult)))}
+ dtox = 0.0
+ ndep = 1.7000000000000000e+17
+ nsd = 1.0e+20
+ rshg = 0.1
+ rsh = 1.0
* Threshold Voltage Parameters
+ vth0 = {-0.964555+sky130_fd_pr__pfet_g5v0d10v5__vth0_slope_spectre*(sky130_fd_pr__pfet_g5v0d10v5__vth0_slope/sqrt(l*w*mult))}
+ k1 = 0.59521
+ k2 = 0.02039548
+ k3 = -2.2405
+ dvt0 = 4.657
+ dvt1 = 0.34864
+ dvt2 = -0.030206
+ dvt0w = -2.2
+ dvt1w = 1016300.0
+ dvt2w = 0.0
+ w0 = 0.0
+ k3b = -0.172
* NEW BSIM4 Parameters for Level 54
+ phin = 0.0
+ lpe0 = 0.0
+ lpeb = 0.0
+ vbm = -3.0
+ dvtp0 = 0.0
+ dvtp1 = 0.0
* Mobility Parameters
+ vsat = 200000.0
+ ua = 2.7054732e-9
+ ub = -5.157e-20
+ uc = -3.9972e-11
+ rdsw = 788.47
+ prwb = 0.053538
+ prwg = 0.0
+ wr = 1.0
+ u0 = 0.0209529
+ a0 = 0.8941253
+ keta = -0.0079259
+ a1 = 0.0
+ a2 = 0.5
+ ags = 0.1386898
+ b0 = 0.0
+ b1 = 0.0
* BSIM4 - Mobility Parameters
+ eu = 1.67
+ rdswmin = 0.0
+ rdw = 0.0
+ rdwmin = 0.0
+ rsw = 0.0
+ rswmin = 0.0
* Subthreshold Current Parameters
+ voff = {-0.093204657+sky130_fd_pr__pfet_g5v0d10v5__voff_slope_spectre*(sky130_fd_pr__pfet_g5v0d10v5__voff_slope/sqrt(l*w*mult))}
+ nfactor = {1.79934+sky130_fd_pr__pfet_g5v0d10v5__nfactor_slope_spectre*(sky130_fd_pr__pfet_g5v0d10v5__nfactor_slope/sqrt(l*w*mult))}
+ up = 0.0
+ ud = 0.0
+ lp = 1.0
+ tvfbsdoff = 0.0
+ tvoff = 0.0
+ cit = 1.0e-5
+ cdsc = 0.0
+ cdscb = 0.0
+ cdscd = 0.0
+ eta0 = 0.080000000000001
+ etab = -0.07
+ dsub = 0.56
* BSIM4 - Sub-threshold parameters
+ voffl = 0.0
+ minv = 0.0
* Rout Parameters
+ pclm = 0.08353125
+ pdiblc1 = 0.39
+ pdiblc2 = 0.0029407877
+ pdiblcb = -0.025
+ drout = 0.56
+ pscbe1 = 333712830.0
+ pscbe2 = 1.5000958e-8
+ pvag = 0.0
+ delta = 0.01
+ alpha0 = 5.0667189e-5
+ alpha1 = 0.0
+ beta0 = 38.266046
* BSIM4 - Rout Parameters
+ fprout = 0.0
+ pdits = 0.0
+ pditsl = 0.0
+ pditsd = 0.0
* BSIM4 - Gate Induced Drain Leakage Model Parameters
+ agidl = 7.3657e-9
+ bgidl = 1704700000.0
+ cgidl = 700.0
+ egidl = 0.69350825
* BSIM4 - Gate Leakage Current Parameters
+ aigbacc = 0.43
+ bigbacc = 0.054
+ cigbacc = 0.075
+ nigbacc = 1.0
+ aigbinv = 0.35
+ bigbinv = 0.03
+ cigbinv = 0.006
+ eigbinv = 1.1
+ nigbinv = 3.0
+ aigc = 0.43
+ bigc = 0.054
+ cigc = 0.075
+ nigc = 1.0
+ aigsd = 0.43
+ bigsd = 0.054
+ cigsd = 0.075
+ dlcig = 0.0
+ poxedge = 1.0
+ pigcd = 1.0
+ ntox = 1.0
+ toxref = 1.175e-8
* Temperature Effects Parameters
+ kt1 = -0.57573
+ kt2 = -0.019032
+ at = 430000.0
+ ute = -1.3864
+ ua1 = 7.0656e-10
+ ub1 = -3.145e-18
+ uc1 = -1.092e-10
+ kt1l = 0.0
+ prt = 0.0
* BSIM4 - High Speed RF Model Parameters
+ xrcrg1 = 12.0
+ xrcrg2 = 1.0
+ rbpb = 50.0
+ rbpd = 50.0
+ rbps = 50.0
+ rbdb = 50.0
+ rbsb = 50.0
+ gbmin = 1.0e-12
* BSIM4 - Flicker and Thermal Noise Parameters
+ noia = 3.0000000e+40
+ noib = 8.5300000e+24
+ noic = 8.4000000e+7
+ em = 4.1000000e+7
+ af = 1.0
+ ef = 0.88
+ kf = 0.0
+ ntnoi = 1.0
* BSIM4 - Layout Dependent Parasitic Model Parameters
+ dmcg = 0.0
+ dmcgt = 0.0
+ dmdg = 0.0
+ xgw = 0.0
+ xgl = 0.0
+ ngcon = 1.0
* Diode DC IV Parameters
* BSIM4 - Diode DC IV parameters
+ diomod = 1.0
+ njs = 1.3632
+ jss = 2.1483e-5
+ jsws = 4.02e-12
+ xtis = 10.0
+ bvs = 12.69
+ xjbvs = 1.0
+ ijthsrev = 0.1
+ ijthsfwd = 0.1
* Diode and FET Capacitance Parameters
+ tpb = 0.001671
+ tpbsw = 0.0
+ tpbswg = 0.0
+ tcj = 0.00096
+ tcjsw = 3.0e-5
+ tcjswg = 0.0
+ cgdo = 1.38397e-10
+ cgso = 1.38397e-10
+ cgbo = 0.0
+ capmod = 2.0
+ xpart = 0.0
+ cgsl = 7.0035e-12
+ cgdl = 7.0035e-12
+ cf = 1.2e-11
+ clc = 1.0e-7
+ cle = 0.6
+ dlc = 6.2308e-8
+ dwc = -3.2175e-8
+ vfbcv = -0.1446893
+ acde = 0.401
+ moin = 15.773
+ noff = 4.0
+ voffcv = 0.0
+ ngate = 1.0e+23
+ lwc = 0.0
+ llc = 0.0
+ lwlc = 0.0
+ wlc = 0.0
+ wwc = 0.0
+ wwlc = 0.0
* BSIM4 - FET and Diode capacitance parameters
+ ckappas = 0.6
+ cjs = 0.0007229086434
+ mjs = 0.33956
+ pbs = 0.6587
+ cjsws = 9.322438612e-11
+ mjsws = 0.24676
+ pbsws = 1.0
+ cjswgs = 1.3787656e-10
+ mjswgs = 0.81
+ pbswgs = 3.0
* Stress Parameters
+ saref = 3.0e-6
+ sbref = 3.0e-6
+ wlod = {0+sky130_fd_pr__pfet_g5v0d10v5__wlod_diff}
+ kvth0 = {0+sky130_fd_pr__pfet_g5v0d10v5__kvth0_diff}
+ lkvth0 = {0+sky130_fd_pr__pfet_g5v0d10v5__lkvth0_diff}
+ wkvth0 = {0+sky130_fd_pr__pfet_g5v0d10v5__wkvth0_diff}
+ pkvth0 = 0.0
+ llodvth = 0.0
+ wlodvth = 1.0
+ stk2 = 0.0
+ lodk2 = 1.0
+ lodeta0 = 1.0
+ ku0 = {0+sky130_fd_pr__pfet_g5v0d10v5__ku0_diff}
+ lku0 = {0+sky130_fd_pr__pfet_g5v0d10v5__lku0_diff}
+ wku0 = {0+sky130_fd_pr__pfet_g5v0d10v5__wku0_diff}
+ pku0 = 0.0
+ llodku0 = 0.0
+ wlodku0 = 1.0
+ kvsat = {0+sky130_fd_pr__pfet_g5v0d10v5__kvsat_diff}
+ steta0 = 0.0
+ tku0 = 0.0
.model sky130_fd_pr__pfet_g5v0d10v5__model.2 pmos
* DC IV MOS Parameters
+ lmin = 4e-06 lmax = 8e-06 wmin = 2.0e-05 wmax = 1.0e-4
+ level = 54.0
+ tnom = 30.0
+ version = 4.5
+ toxm = 1.175e-8
+ xj = 1.5e-7
+ lln = 1.0
+ lwn = 1.0
+ wln = 1.0
+ wwn = 1.0
+ lint = 6.27e-8
+ ll = 0.0
+ lw = 0.0
+ lwl = 0.0
+ wint = -1.9898e-8
+ wl = 0.0
+ ww = 0.0
+ wwl = 0.0
+ xl = 0.0
+ xw = 0.0
+ mobmod = 0.0
+ binunit = 2.0
+ dwg = -4.7338e-9
+ dwb = 0.0
* BSIM4 - Model Selectors
+ igcmod = 0.0
+ igbmod = 0.0
+ rgatemod = 0.0
+ rbodymod = 1.0
+ trnqsmod = 0.0
+ acnqsmod = 0.0
+ fnoimod = 1.0
+ tnoimod = 1.0
+ permod = 1.0
+ geomod = 0.0
+ rdsmod = 0.0
+ tempmod = 0.0
+ lintnoi = 0.0
+ vfbsdoff = 0.0
+ lambda = 0.0
+ vtl = 0.0
+ lc = 5.0e-9
+ xn = 3.0
+ rnoia = 0.577
+ rnoib = 0.37
+ tnoia = 1.5
+ tnoib = 3.5
* BSIM4 - Process Parameters
+ epsrox = 3.9
+ toxe = {1.1045e-08+sky130_fd_pr__pfet_g5v0d10v5__toxe_slope_spectre*(1.1045e-08*(sky130_fd_pr__pfet_g5v0d10v5__toxe_slope/sqrt(l*w*mult)))}
+ dtox = 0.0
+ ndep = 1.7000000000000000e+17
+ nsd = 1.0e+20
+ rshg = 0.1
+ rsh = 1.0
* Threshold Voltage Parameters
+ vth0 = {-0.9708996575+sky130_fd_pr__pfet_g5v0d10v5__vth0_slope_spectre*(sky130_fd_pr__pfet_g5v0d10v5__vth0_slope/sqrt(l*w*mult))} lvth0 = 4.99616399495017e-8
+ k1 = 0.6040731475 lk1 = -6.97937413035002e-8
+ k2 = 0.017946422832 lk2 = 1.92853455751328e-8
+ k3 = -2.2405
+ dvt0 = 4.657
+ dvt1 = 0.34864
+ dvt2 = -0.030206
+ dvt0w = -2.2
+ dvt1w = 1016300.0
+ dvt2w = 0.0
+ w0 = 0.0
+ k3b = -0.172
* NEW BSIM4 Parameters for Level 54
+ phin = 0.0
+ lpe0 = 0.0
+ lpeb = 0.0
+ vbm = -3.0
+ dvtp0 = 0.0
+ dvtp1 = 0.0
* Mobility Parameters
+ vsat = 296855.3135 lvsat = -0.7626968516871
+ ua = 2.452507249685e-09 lua = 1.9920056723505e-15
+ ub = 2.05160996e-19 lub = -2.0216539011016e-24 wub = -3.67341984631965e-40 pub = 4.20389539297445e-45
+ uc = -5.147278145e-11 luc = 9.05640536061701e-17
+ rdsw = 788.47
+ prwb = 0.053538
+ prwg = 0.0
+ wr = 1.0
+ u0 = 0.020337710385 lu0 = 4.844372142279e-9
+ a0 = 0.913768069025 la0 = -1.54678948964264e-7
+ keta = -0.004983044435 lketa = -2.3173810432149e-8
+ a1 = 0.0
+ a2 = 0.5
+ ags = 0.113393989575 lags = 1.99194388772705e-7
+ b0 = 0.0
+ b1 = 0.0
* BSIM4 - Mobility Parameters
+ eu = 1.67
+ rdswmin = 0.0
+ rdw = 0.0
+ rdwmin = 0.0
+ rsw = 0.0
+ rswmin = 0.0
* Subthreshold Current Parameters
+ voff = {-0.0947625464815+sky130_fd_pr__pfet_g5v0d10v5__voff_slope_spectre*(sky130_fd_pr__pfet_g5v0d10v5__voff_slope/sqrt(l*w*mult))} lvoff = 1.22677565110199e-8
+ nfactor = {1.8039023415+sky130_fd_pr__pfet_g5v0d10v5__nfactor_slope_spectre*(sky130_fd_pr__pfet_g5v0d10v5__nfactor_slope/sqrt(l*w*mult))} lnfactor = -3.5926614375899e-8
+ up = 0.0
+ ud = 0.0
+ lp = 1.0
+ tvfbsdoff = 0.0
+ tvoff = 0.0
+ cit = 1.0e-5
+ cdsc = 0.0
+ cdscb = 0.0
+ cdscd = 0.0
+ eta0 = 0.080000000000001
+ etab = -0.07
+ dsub = 0.56
* BSIM4 - Sub-threshold parameters
+ voffl = 0.0
+ minv = 0.0
* Rout Parameters
+ pclm = -0.641832441643 lpclm = 5.71194892621197e-6
+ pdiblc1 = 0.39
+ pdiblc2 = 0.004539823205605 lpdiblc2 = -1.25917649924371e-8
+ pdiblcb = -0.025
+ drout = 0.56
+ pscbe1 = 560098762.7795 lpscbe1 = -1782.69866626545
+ pscbe2 = -1.50486592213e-08 lpscbe2 = 2.36628715770849e-13
+ pvag = 0.0
+ delta = 0.01
+ alpha0 = 7.7909598465e-05 lalpha0 = -2.14523077573089e-10
+ alpha1 = 0.0
+ beta0 = 39.13253926505 lbeta0 = -6.82328786496275e-6
* BSIM4 - Rout Parameters
+ fprout = 0.0
+ pdits = 0.0
+ pditsl = 0.0
+ pditsd = 0.0
* BSIM4 - Gate Induced Drain Leakage Model Parameters
+ agidl = 6.546125235e-09 lagidl = 6.453823444469e-15
+ bgidl = 1480360660 lbgidl = 1766.582566764
+ cgidl = 930.5387 lcgidl = -0.00181540004702
+ egidl = 1.2047468705955 legidl = -4.02579964174133e-6
* BSIM4 - Gate Leakage Current Parameters
+ aigbacc = 0.43
+ bigbacc = 0.054
+ cigbacc = 0.075
+ nigbacc = 1.0
+ aigbinv = 0.35
+ bigbinv = 0.03
+ cigbinv = 0.006
+ eigbinv = 1.1
+ nigbinv = 3.0
+ aigc = 0.43
+ bigc = 0.054
+ cigc = 0.075
+ nigc = 1.0
+ aigsd = 0.43
+ bigsd = 0.054
+ cigsd = 0.075
+ dlcig = 0.0
+ poxedge = 1.0
+ pigcd = 1.0
+ ntox = 1.0
+ toxref = 1.175e-8
* Temperature Effects Parameters
+ kt1 = -0.5851549645 lkt1 = 7.42178254517005e-8
+ kt2 = -0.019032
+ at = 670893.5685 lat = -1.8969404945101
+ ute = -1.222020095 lute = -1.294425999913e-6
+ ua1 = 1.3695660536e-09 lua1 = -5.22090746967856e-15
+ ub1 = -2.61514845e-18 lub1 = -4.17236901563001e-24
+ uc1 = -1.092e-10
+ kt1l = 0.0
+ prt = 0.0
* BSIM4 - High Speed RF Model Parameters
+ xrcrg1 = 12.0
+ xrcrg2 = 1.0
+ rbpb = 50.0
+ rbpd = 50.0
+ rbps = 50.0
+ rbdb = 50.0
+ rbsb = 50.0
+ gbmin = 1.0e-12
* BSIM4 - Flicker and Thermal Noise Parameters
+ noia = 3.0000000e+40
+ noib = 8.5300000e+24
+ noic = 8.4000000e+7
+ em = 4.1000000e+7
+ af = 1.0
+ ef = 0.88
+ kf = 0.0
+ ntnoi = 1.0
* BSIM4 - Layout Dependent Parasitic Model Parameters
+ dmcg = 0.0
+ dmcgt = 0.0
+ dmdg = 0.0
+ xgw = 0.0
+ xgl = 0.0
+ ngcon = 1.0
* Diode DC IV Parameters
* BSIM4 - Diode DC IV parameters
+ diomod = 1.0
+ njs = 1.3632
+ jss = 2.1483e-5
+ jsws = 4.02e-12
+ xtis = 10.0
+ bvs = 12.69
+ xjbvs = 1.0
+ ijthsrev = 0.1
+ ijthsfwd = 0.1
* Diode and FET Capacitance Parameters
+ tpb = 0.001671
+ tpbsw = 0.0
+ tpbswg = 0.0
+ tcj = 0.00096
+ tcjsw = 3.0e-5
+ tcjswg = 0.0
+ cgdo = 1.38397e-10
+ cgso = 1.38397e-10
+ cgbo = 0.0
+ capmod = 2.0
+ xpart = 0.0
+ cgsl = 7.0035e-12
+ cgdl = 7.0035e-12
+ cf = 1.2e-11
+ clc = 1.0e-7
+ cle = 0.6
+ dlc = 6.2308e-8
+ dwc = -3.2175e-8
+ vfbcv = -0.1446893
+ acde = 0.401
+ moin = 15.773
+ noff = 4.0
+ voffcv = 0.0
+ ngate = 1.0e+23
+ lwc = 0.0
+ llc = 0.0
+ lwlc = 0.0
+ wlc = 0.0
+ wwc = 0.0
+ wwlc = 0.0
* BSIM4 - FET and Diode capacitance parameters
+ ckappas = 0.6
+ cjs = 0.0007229086434
+ mjs = 0.33956
+ pbs = 0.6587
+ cjsws = 9.322438612e-11
+ mjsws = 0.24676
+ pbsws = 1.0
+ cjswgs = 1.3787656e-10
+ mjswgs = 0.81
+ pbswgs = 3.0
* Stress Parameters
+ saref = 3.0e-6
+ sbref = 3.0e-6
+ wlod = {0+sky130_fd_pr__pfet_g5v0d10v5__wlod_diff}
+ kvth0 = {0+sky130_fd_pr__pfet_g5v0d10v5__kvth0_diff}
+ lkvth0 = {0+sky130_fd_pr__pfet_g5v0d10v5__lkvth0_diff}
+ wkvth0 = {0+sky130_fd_pr__pfet_g5v0d10v5__wkvth0_diff}
+ pkvth0 = 0.0
+ llodvth = 0.0
+ wlodvth = 1.0
+ stk2 = 0.0
+ lodk2 = 1.0
+ lodeta0 = 1.0
+ ku0 = {0+sky130_fd_pr__pfet_g5v0d10v5__ku0_diff}
+ lku0 = {0+sky130_fd_pr__pfet_g5v0d10v5__lku0_diff}
+ wku0 = {0+sky130_fd_pr__pfet_g5v0d10v5__wku0_diff}
+ pku0 = 0.0
+ llodku0 = 0.0
+ wlodku0 = 1.0
+ kvsat = {0+sky130_fd_pr__pfet_g5v0d10v5__kvsat_diff}
+ steta0 = 0.0
+ tku0 = 0.0
.model sky130_fd_pr__pfet_g5v0d10v5__model.3 pmos
* DC IV MOS Parameters
+ lmin = 2e-06 lmax = 4e-06 wmin = 2.0e-05 wmax = 1.0e-4
+ level = 54.0
+ tnom = 30.0
+ version = 4.5
+ toxm = 1.175e-8
+ xj = 1.5e-7
+ lln = 1.0
+ lwn = 1.0
+ wln = 1.0
+ wwn = 1.0
+ lint = 6.27e-8
+ ll = 0.0
+ lw = 0.0
+ lwl = 0.0
+ wint = -1.9898e-8
+ wl = 0.0
+ ww = 0.0
+ wwl = 0.0
+ xl = 0.0
+ xw = 0.0
+ mobmod = 0.0
+ binunit = 2.0
+ dwg = -4.7338e-9
+ dwb = 0.0
* BSIM4 - Model Selectors
+ igcmod = 0.0
+ igbmod = 0.0
+ rgatemod = 0.0
+ rbodymod = 1.0
+ trnqsmod = 0.0
+ acnqsmod = 0.0
+ fnoimod = 1.0
+ tnoimod = 1.0
+ permod = 1.0
+ geomod = 0.0
+ rdsmod = 0.0
+ tempmod = 0.0
+ lintnoi = 0.0
+ vfbsdoff = 0.0
+ lambda = 0.0
+ vtl = 0.0
+ lc = 5.0e-9
+ xn = 3.0
+ rnoia = 0.577
+ rnoib = 0.37
+ tnoia = 1.5
+ tnoib = 3.5
* BSIM4 - Process Parameters
+ epsrox = 3.9
+ toxe = {1.1045e-08+sky130_fd_pr__pfet_g5v0d10v5__toxe_slope_spectre*(1.1045e-08*(sky130_fd_pr__pfet_g5v0d10v5__toxe_slope/sqrt(l*w*mult)))}
+ dtox = 0.0
+ ndep = 1.7000000000000000e+17
+ nsd = 1.0e+20
+ rshg = 0.1
+ rsh = 1.0
* Threshold Voltage Parameters
+ vth0 = {-0.9431553561+sky130_fd_pr__pfet_g5v0d10v5__vth0_slope_spectre*(sky130_fd_pr__pfet_g5v0d10v5__vth0_slope/sqrt(l*w*mult))} lvth0 = -5.75364302549401e-8
+ k1 = 0.602294036 lk1 = -6.29003958856002e-8
+ k2 = 0.023211373013 lk2 = -1.1142303961698e-9
+ k3 = -2.2405
+ dvt0 = 4.657
+ dvt1 = 0.34864
+ dvt2 = -0.030206
+ dvt0w = -2.2
+ dvt1w = 1016300.0
+ dvt2w = 0.0
+ w0 = 0.0
+ k3b = -0.172
* NEW BSIM4 Parameters for Level 54
+ phin = 0.0
+ lpe0 = 0.0
+ lpeb = 0.0
+ vbm = -3.0
+ dvtp0 = 0.0
+ dvtp1 = 0.0
* Mobility Parameters
+ vsat = 84825.74 lvsat = 0.058832933796
+ ua = 3.31328698619e-09 lua = -1.34317149471177e-15
+ ub = -1.239166271e-18 lub = 3.5745365276166e-24
+ uc = -5.44361927e-11 luc = 1.0204608683542e-16
+ rdsw = 788.47
+ prwb = 0.053538
+ prwg = 0.0
+ wr = 1.0
+ u0 = 0.02075923934 lu0 = 3.21111605323601e-9
+ a0 = 0.825992817278 la0 = 1.85415041454661e-7
+ keta = -0.0051939812 lketa = -2.235651484248e-8
+ a1 = 0.0
+ a2 = 0.5
+ ags = 0.13791869307 lags = 1.04170972610978e-7
+ b0 = 0.0
+ b1 = 0.0
* BSIM4 - Mobility Parameters
+ eu = 1.67
+ rdswmin = 0.0
+ rdw = 0.0
+ rdwmin = 0.0
+ rsw = 0.0
+ rswmin = 0.0
* Subthreshold Current Parameters
+ voff = {-0.0645862731911+sky130_fd_pr__pfet_g5v0d10v5__voff_slope_spectre*(sky130_fd_pr__pfet_g5v0d10v5__voff_slope/sqrt(l*w*mult))} lvoff = -1.04653231979964e-7
+ nfactor = {2.231805466+sky130_fd_pr__pfet_g5v0d10v5__nfactor_slope_spectre*(sky130_fd_pr__pfet_g5v0d10v5__nfactor_slope/sqrt(l*w*mult))} lnfactor = -1.6938800605636e-6
+ up = 0.0
+ ud = 0.0
+ lp = 1.0
+ tvfbsdoff = 0.0
+ tvoff = 0.0
+ cit = 1.0e-5
+ cdsc = 0.0
+ cdscb = 0.0
+ cdscd = 0.0
+ eta0 = 0.020200260000001 leta0 = 2.31700072604e-7
+ etab = -0.1214502716 letab = 1.9934922234136e-7
+ dsub = 0.810118505 ldsub = -9.69109159473e-7
* BSIM4 - Sub-threshold parameters
+ voffl = 0.0
+ minv = 0.0
* Rout Parameters
+ pclm = 1.044838468325 lpclm = -8.23226181550045e-7
+ pdiblc1 = 0.57808555402 lpdiblc1 = -7.28756287605892e-7
+ pdiblc2 = -0.0010893622944 lpdiblc2 = 9.21907714588224e-9
+ pdiblcb = 0.16246 lpdiblcb = -7.26332516e-07 wpdiblcb = 2.11758236813575e-22
+ drout = 0.147588 ldrout = 1.5979315352e-6
+ pscbe1 = -151521249.434 lpscbe1 = 974.544233056976 ppscbe1 = 1.73472347597681e-18
+ pscbe2 = 7.55293005675e-08 lpscbe2 = -1.14324647226835e-13
+ pvag = 0.0
+ delta = 0.01
+ alpha0 = 4.36726325897e-05 lalpha0 = -8.18685295926516e-11
+ alpha1 = -9.373e-11 lalpha1 = 3.63166258e-16
+ beta0 = 69.5879243857 lbeta0 = -0.000124825723053433 pbeta0 = 4.13590306276514e-25
* BSIM4 - Rout Parameters
+ fprout = 0.0
+ pdits = 0.0
+ pditsl = 0.0
+ pditsd = 0.0
* BSIM4 - Gate Induced Drain Leakage Model Parameters
+ agidl = 9.17928106e-09 lagidl = -3.748602115076e-15
+ bgidl = 2607594260 lbgidl = -2600.996739796
+ cgidl = 455.860685 lcgidl = 2.37873898990002e-5
+ egidl = -1.553543708466 legidl = 6.66147303589036e-06 wegidl = -3.3881317890172e-21 pegidl = -6.46234853557053e-27
* BSIM4 - Gate Leakage Current Parameters
+ aigbacc = 0.43
+ bigbacc = 0.054
+ cigbacc = 0.075
+ nigbacc = 1.0
+ aigbinv = 0.35
+ bigbinv = 0.03
+ cigbinv = 0.006
+ eigbinv = 1.1
+ nigbinv = 3.0
+ aigc = 0.43
+ bigc = 0.054
+ cigc = 0.075
+ nigc = 1.0
+ aigsd = 0.43
+ bigsd = 0.054
+ cigsd = 0.075
+ dlcig = 0.0
+ poxedge = 1.0
+ pigcd = 1.0
+ ntox = 1.0
+ toxref = 1.175e-8
* Temperature Effects Parameters
+ kt1 = -0.5669373 lkt1 = 3.6316625799996e-9
+ kt2 = -0.019032
+ at = 209907.023 lat = -0.1108020253158
+ ute = -1.70241253 lute = 5.66902528738e-7
+ ua1 = -4.749579392e-10 lua1 = 1.92588519282432e-15 wua1 = 7.88860905221012e-31 pua1 = -2.63310734584192e-36
+ ub1 = -3.71946289e-18 lub1 = 1.06407713594004e-25
+ uc1 = -1.092e-10
+ kt1l = 0.0
+ prt = 0.0
* BSIM4 - High Speed RF Model Parameters
+ xrcrg1 = 12.0
+ xrcrg2 = 1.0
+ rbpb = 50.0
+ rbpd = 50.0
+ rbps = 50.0
+ rbdb = 50.0
+ rbsb = 50.0
+ gbmin = 1.0e-12
* BSIM4 - Flicker and Thermal Noise Parameters
+ noia = 3.0000000e+40
+ noib = 8.5300000e+24
+ noic = 8.4000000e+7
+ em = 4.1000000e+7
+ af = 1.0
+ ef = 0.88
+ kf = 0.0
+ ntnoi = 1.0
* BSIM4 - Layout Dependent Parasitic Model Parameters
+ dmcg = 0.0
+ dmcgt = 0.0
+ dmdg = 0.0
+ xgw = 0.0
+ xgl = 0.0
+ ngcon = 1.0
* Diode DC IV Parameters
* BSIM4 - Diode DC IV parameters
+ diomod = 1.0
+ njs = 1.3632
+ jss = 2.1483e-5
+ jsws = 4.02e-12
+ xtis = 10.0
+ bvs = 12.69
+ xjbvs = 1.0
+ ijthsrev = 0.1
+ ijthsfwd = 0.1
* Diode and FET Capacitance Parameters
+ tpb = 0.001671
+ tpbsw = 0.0
+ tpbswg = 0.0
+ tcj = 0.00096
+ tcjsw = 3.0e-5
+ tcjswg = 0.0
+ cgdo = 1.38397e-10
+ cgso = 1.38397e-10
+ cgbo = 0.0
+ capmod = 2.0
+ xpart = 0.0
+ cgsl = 7.0035e-12
+ cgdl = 7.0035e-12
+ cf = 1.2e-11
+ clc = 1.0e-7
+ cle = 0.6
+ dlc = 6.2308e-8
+ dwc = -3.2175e-8
+ vfbcv = -0.1446893
+ acde = 0.401
+ moin = 15.773
+ noff = 4.0
+ voffcv = 0.0
+ ngate = 1.0e+23
+ lwc = 0.0
+ llc = 0.0
+ lwlc = 0.0
+ wlc = 0.0
+ wwc = 0.0
+ wwlc = 0.0
* BSIM4 - FET and Diode capacitance parameters
+ ckappas = 0.6
+ cjs = 0.0007229086434
+ mjs = 0.33956
+ pbs = 0.6587
+ cjsws = 9.322438612e-11
+ mjsws = 0.24676
+ pbsws = 1.0
+ cjswgs = 1.3787656e-10
+ mjswgs = 0.81
+ pbswgs = 3.0
* Stress Parameters
+ saref = 3.0e-6
+ sbref = 3.0e-6
+ wlod = {0+sky130_fd_pr__pfet_g5v0d10v5__wlod_diff}
+ kvth0 = {0+sky130_fd_pr__pfet_g5v0d10v5__kvth0_diff}
+ lkvth0 = {0+sky130_fd_pr__pfet_g5v0d10v5__lkvth0_diff}
+ wkvth0 = {0+sky130_fd_pr__pfet_g5v0d10v5__wkvth0_diff}
+ pkvth0 = 0.0
+ llodvth = 0.0
+ wlodvth = 1.0
+ stk2 = 0.0
+ lodk2 = 1.0
+ lodeta0 = 1.0
+ ku0 = {0+sky130_fd_pr__pfet_g5v0d10v5__ku0_diff}
+ lku0 = {0+sky130_fd_pr__pfet_g5v0d10v5__lku0_diff}
+ wku0 = {0+sky130_fd_pr__pfet_g5v0d10v5__wku0_diff}
+ pku0 = 0.0
+ llodku0 = 0.0
+ wlodku0 = 1.0
+ kvsat = {0+sky130_fd_pr__pfet_g5v0d10v5__kvsat_diff}
+ steta0 = 0.0
+ tku0 = 0.0
.model sky130_fd_pr__pfet_g5v0d10v5__model.4 pmos
* DC IV MOS Parameters
+ lmin = 1e-06 lmax = 2e-06 wmin = 2.0e-05 wmax = 1.0e-4
+ level = 54.0
+ tnom = 30.0
+ version = 4.5
+ toxm = 1.175e-8
+ xj = 1.5e-7
+ lln = 1.0
+ lwn = 1.0
+ wln = 1.0
+ wwn = 1.0
+ lint = 6.27e-8
+ ll = 0.0
+ lw = 0.0
+ lwl = 0.0
+ wint = -1.9898e-8
+ wl = 0.0
+ ww = 0.0
+ wwl = 0.0
+ xl = 0.0
+ xw = 0.0
+ mobmod = 0.0
+ binunit = 2.0
+ dwg = -4.7338e-9
+ dwb = 0.0
* BSIM4 - Model Selectors
+ igcmod = 0.0
+ igbmod = 0.0
+ rgatemod = 0.0
+ rbodymod = 1.0
+ trnqsmod = 0.0
+ acnqsmod = 0.0
+ fnoimod = 1.0
+ tnoimod = 1.0
+ permod = 1.0
+ geomod = 0.0
+ rdsmod = 0.0
+ tempmod = 0.0
+ lintnoi = 0.0
+ vfbsdoff = 0.0
+ lambda = 0.0
+ vtl = 0.0
+ lc = 5.0e-9
+ xn = 3.0
+ rnoia = 0.577
+ rnoib = 0.37
+ tnoia = 1.5
+ tnoib = 3.5
* BSIM4 - Process Parameters
+ epsrox = 3.9
+ toxe = {1.1045e-08+sky130_fd_pr__pfet_g5v0d10v5__toxe_slope_spectre*(1.1045e-08*(sky130_fd_pr__pfet_g5v0d10v5__toxe_slope/sqrt(l*w*mult)))}
+ dtox = 0.0
+ ndep = 1.7000000000000000e+17
+ nsd = 1.0e+20
+ rshg = 0.1
+ rsh = 1.0
* Threshold Voltage Parameters
+ vth0 = {-0.9966077158+sky130_fd_pr__pfet_g5v0d10v5__vth0_slope_spectre*(sky130_fd_pr__pfet_g5v0d10v5__vth0_slope/sqrt(l*w*mult))} lvth0 = 4.26653632386798e-8
+ k1 = 0.55942551 lk1 = 1.74609429539997e-8
+ k2 = 0.017219824654 lk2 = 1.01175261576116e-8
+ k3 = -2.2405
+ dvt0 = 4.657
+ dvt1 = 0.34864
+ dvt2 = -0.030206
+ dvt0w = -2.2
+ dvt1w = 1016300.0
+ dvt2w = 0.0
+ w0 = 0.0
+ k3b = -0.172
* NEW BSIM4 Parameters for Level 54
+ phin = 0.0
+ lpe0 = 0.0
+ lpeb = 0.0
+ vbm = -3.0
+ dvtp0 = 0.0
+ dvtp1 = 0.0
* Mobility Parameters
+ vsat = 175963.5466 lvsat = -0.11201399845636
+ ua = 3.424749578434e-09 lua = -1.55211927013238e-15
+ ub = 6.4325866e-19 lub = 4.57427519639998e-26
+ uc = 5.12043316e-13 luc = -9.598764001736e-19
+ rdsw = 788.47
+ prwb = 0.053538
+ prwg = 0.0
+ wr = 1.0
+ u0 = 0.02566702634 lu0 = -5.989021456964e-9
+ a0 = 1.000482195724 la0 = -1.4168274738021e-7
+ keta = 0.0419609792 lketa = -1.1075320360832e-07 pketa = 2.01948391736579e-28
+ a1 = 0.0
+ a2 = 0.5
+ ags = -0.29536367256 lags = 9.16402095220976e-7
+ b0 = 0.0
+ b1 = 0.0
* BSIM4 - Mobility Parameters
+ eu = 1.67
+ rdswmin = 0.0
+ rdw = 0.0
+ rdwmin = 0.0
+ rsw = 0.0
+ rswmin = 0.0
* Subthreshold Current Parameters
+ voff = {-0.1577214518922+sky130_fd_pr__pfet_g5v0d10v5__voff_slope_spectre*(sky130_fd_pr__pfet_g5v0d10v5__voff_slope/sqrt(l*w*mult))} lvoff = 6.99379740131181e-8
+ nfactor = {1.088455902+sky130_fd_pr__pfet_g5v0d10v5__nfactor_slope_spectre*(sky130_fd_pr__pfet_g5v0d10v5__nfactor_slope/sqrt(l*w*mult))} lnfactor = 4.49443032110801e-7
+ up = 0.0
+ ud = 0.0
+ lp = 1.0
+ tvfbsdoff = 0.0
+ tvoff = 0.0
+ cit = 1.4373e-05 lcit = -8.1976258e-12
+ cdsc = 0.0
+ cdscb = 0.0
+ cdscd = 0.0
+ eta0 = 0.269542430581401 leta0 = -2.35716760367893e-7
+ etab = -0.0283214568 letab = 2.476994611728e-8
+ dsub = 0.0736166540000002 ldsub = 4.115372104116e-7
* BSIM4 - Sub-threshold parameters
+ voffl = 0.0
+ minv = 0.0
* Rout Parameters
+ pclm = 0.083196751172 lpclm = 9.79467381424969e-7
+ pdiblc1 = 0.00549710252000002 lpdiblc1 = 3.44618023576008e-7
+ pdiblc2 = 0.00585964945018 lpdiblc2 = -3.80754027050743e-9
+ pdiblcb = -0.39992 lpdiblcb = 3.27905032e-7
+ drout = 1.515411042014 ldrout = -9.66189539359445e-07 wdrout = 6.7762635780344e-21
+ pscbe1 = 428577028.488 lpscbe1 = -112.907998735605
+ pscbe2 = 1.45331535696e-08 lpscbe2 = 1.87299354278389e-17
+ pvag = 0.0
+ delta = 0.01
+ alpha0 = -5.93092031506e-05 lalpha0 = 1.11181219686115e-10 walpha0 = 6.58698855859545e-27 palpha0 = -1.82584177258986e-31
+ alpha1 = 1.8746e-10 lalpha1 = -1.63952516e-16
+ beta0 = -38.239948205 lbeta0 = 7.7308406905093e-05 pbeta0 = 5.16987882845642e-26
* BSIM4 - Rout Parameters
+ fprout = 0.0
+ pdits = 0.0
+ pditsl = 0.0
+ pditsd = 0.0
* BSIM4 - Gate Induced Drain Leakage Model Parameters
+ agidl = 3.96946816e-09 lagidl = 6.017713147264e-15
+ bgidl = 869210480 lbgidl = 657.777494192