* Copyright 2020 The SkyWater PDK Authors
*
* Licensed under the Apache License, Version 2.0 (the "License");
* you may not use this file except in compliance with the License.
* You may obtain a copy of the License at
*
*     https://www.apache.org/licenses/LICENSE-2.0
*
* Unless required by applicable law or agreed to in writing, software
* distributed under the License is distributed on an "AS IS" BASIS,
* WITHOUT WARRANTIES OR CONDITIONS OF ANY KIND, either express or implied.
* See the License for the specific language governing permissions and
* limitations under the License.

* SKY130 Spice File.
.param sky130_fd_pr__pfet_g5v0d10v5__toxe_slope_spectre = 0.0
.param sky130_fd_pr__pfet_g5v0d10v5__vth0_slope_spectre = 0.0
.param sky130_fd_pr__pfet_g5v0d10v5__voff_slope_spectre = 0.0
.param sky130_fd_pr__pfet_g5v0d10v5__nfactor_slope_spectre = 0.0
* statistics {
*   process {
*   }
*   mismatch {
*     vary sky130_fd_pr__pfet_g5v0d10v5__toxe_slope_spectre dist=gauss std = 1.0
*     vary sky130_fd_pr__pfet_g5v0d10v5__vth0_slope_spectre dist=gauss std = 1.0
*     vary sky130_fd_pr__pfet_g5v0d10v5__voff_slope_spectre dist=gauss std = 1.0
*     vary sky130_fd_pr__pfet_g5v0d10v5__nfactor_slope_spectre dist=gauss std = 1.0
*   }
* }
.subckt  sky130_fd_pr__pfet_g5v0d10v5 d g s b
+ 
.param  l = 1 w = 1 ad = 0 as = 0 pd = 0 ps = 0 nrd = 0 nrs = 0 sa = 0 sb = 0 sd = 0 mult = 1 nf = 1.0
msky130_fd_pr__pfet_g5v0d10v5 d g s b sky130_fd_pr__pfet_g5v0d10v5__model l = {l} w = {w} ad = {ad} as = {as} pd = {pd} ps = {ps} nrd = {nrd} nrs = {nrs} sa = {sa} sb = {sb} sd = {sd} nf = {nf}
.model sky130_fd_pr__pfet_g5v0d10v5__model.0 pmos
* DC IV MOS Parameters
+ lmin = 4.95e-07 lmax = 5.05e-07 wmin = 9.995e-06 wmax = 1.0005e-5
+ level = 54.0
+ tnom = 30.0
+ version = 4.5
+ toxm = 1.175e-8
+ xj = 1.5e-7
+ lln = 1.0
+ lwn = 1.0
+ wln = 1.0
+ wwn = 1.0
+ lint = {4.5375e-008+sky130_fd_pr__pfet_g5v0d10v5__lint_diff}
+ ll = 0.0
+ lw = 0.0
+ lwl = 0.0
+ wint = {1.2277e-008+sky130_fd_pr__pfet_g5v0d10v5__wint_diff}
+ wl = 0.0
+ ww = 0.0
+ wwl = 0.0
+ xl = 0.0
+ xw = 0.0
+ mobmod = 0.0
+ binunit = 2.0
+ dwg = -4.7338e-9
+ dwb = 0.0
* BSIM4 - Model Selectors
+ igcmod = 0.0
+ igbmod = 0.0
+ rgatemod = 0.0
+ rbodymod = 1.0
+ trnqsmod = 0.0
+ acnqsmod = 0.0
+ fnoimod = 1.0
+ tnoimod = 1.0
+ permod = 1.0
+ geomod = 0.0
+ rdsmod = 0.0
+ tempmod = 0.0
+ lintnoi = 0.0
+ vfbsdoff = 0.0
+ lambda = 0.0
+ vtl = 0.0
+ lc = 5.0e-9
+ xn = 3.0
+ rnoia = 0.577
+ rnoib = 0.37
+ tnoia = 1.5
+ tnoib = 3.5
* BSIM4 - Process Parameters
+ epsrox = 3.9
+ toxe = {1.175e-008*sky130_fd_pr__pfet_g5v0d10v5__toxe_mult+sky130_fd_pr__pfet_g5v0d10v5__toxe_slope_spectre*(1.175e-08*sky130_fd_pr__pfet_g5v0d10v5__toxe_mult*(sky130_fd_pr__pfet_g5v0d10v5__toxe_slope/sqrt(l*w*mult)))}
+ dtox = 0.0
+ ndep = 1.7e+17
+ nsd = 1.0e+20
+ rshg = 0.1
+ rsh = {1*sky130_fd_pr__pfet_g5v0d10v5__rshp_mult}
* Threshold Voltage Parameters
+ vth0 = {-0.981+sky130_fd_pr__pfet_g5v0d10v5__vth0_diff_0+sky130_fd_pr__pfet_g5v0d10v5__vth0_slope_spectre*(sky130_fd_pr__pfet_g5v0d10v5__vth0_slope/sqrt(l*w*mult))}
+ k1 = 0.59804
+ k2 = {0.024041+sky130_fd_pr__pfet_g5v0d10v5__k2_diff_0}
+ k3 = -2.2405
+ dvt0 = 4.657
+ dvt1 = 0.34864
+ dvt2 = -0.030206
+ dvt0w = -2.2
+ dvt1w = 1016300.0
+ dvt2w = 0.0
+ w0 = 0.0
+ k3b = -0.172
* NEW BSIM4 Parameters for Level 54
+ phin = 0.0
+ lpe0 = 0.0
+ lpeb = 0.0
+ vbm = -3.0
+ dvtp0 = 0.0
+ dvtp1 = 0.0
* Mobility Parameters
+ vsat = {68340+sky130_fd_pr__pfet_g5v0d10v5__vsat_diff_0}
+ ua = {2.1590772e-009+sky130_fd_pr__pfet_g5v0d10v5__ua_diff_0}
+ ub = {8.2164e-019+sky130_fd_pr__pfet_g5v0d10v5__ub_diff_0}
+ uc = -5.2815e-12
+ rdsw = {788.47+sky130_fd_pr__pfet_g5v0d10v5__rdsw_diff_0}
+ prwb = 0.053538
+ prwg = 0.0
+ wr = 1.0
+ u0 = {0.021377+sky130_fd_pr__pfet_g5v0d10v5__u0_diff_0}
+ a0 = {0.95964+sky130_fd_pr__pfet_g5v0d10v5__a0_diff_0}
+ keta = {-0.08587+sky130_fd_pr__pfet_g5v0d10v5__keta_diff_0}
+ a1 = 0.0
+ a2 = 0.5
+ ags = {1.25+sky130_fd_pr__pfet_g5v0d10v5__ags_diff_0}
+ b0 = {0+sky130_fd_pr__pfet_g5v0d10v5__b0_diff_0}
+ b1 = {0+sky130_fd_pr__pfet_g5v0d10v5__b1_diff_0}
* BSIM4 - Mobility Parameters
+ eu = 1.67
+ rdswmin = 0.0
+ rdw = 0.0
+ rdwmin = 0.0
+ rsw = 0.0
+ rswmin = 0.0
* Subthreshold Current Parameters
+ voff = {-0.10153677+sky130_fd_pr__pfet_g5v0d10v5__voff_diff_0+sky130_fd_pr__pfet_g5v0d10v5__voff_slope_spectre*(sky130_fd_pr__pfet_g5v0d10v5__voff_slope/sqrt(l*w*mult))}
+ nfactor = {1.1999+sky130_fd_pr__pfet_g5v0d10v5__nfactor_diff_0+sky130_fd_pr__pfet_g5v0d10v5__nfactor_slope_spectre*(sky130_fd_pr__pfet_g5v0d10v5__nfactor_slope/sqrt(l*w*mult))}
+ up = 0.0
+ ud = 0.0
+ lp = 1.0
+ tvfbsdoff = 0.0
+ tvoff = {0+sky130_fd_pr__pfet_g5v0d10v5__tvoff_diff_0}
+ cit = 5.0e-6
+ cdsc = 0.0
+ cdscb = 0.0
+ cdscd = 0.0
+ eta0 = {0.064044+sky130_fd_pr__pfet_g5v0d10v5__eta0_diff_0}
+ etab = -0.0073156
+ dsub = 0.27967
* BSIM4 - Sub-threshold parameters
+ voffl = 0.0
+ minv = 0.0
* Rout Parameters
+ pclm = {1.2297+sky130_fd_pr__pfet_g5v0d10v5__pclm_diff_0}
+ pdiblc1 = 0.29403034
+ pdiblc2 = 0.0048008826
+ pdiblcb = -0.025
+ drout = 0.89960455
+ pscbe1 = 3.6263996e+8
+ pscbe2 = 1.448673e-8
+ pvag = 0.0
+ delta = 0.01
+ alpha0 = 9.713535e-5
+ alpha1 = 0.0
+ beta0 = 54.684511
* BSIM4 - Rout Parameters
+ fprout = 0.0
+ pdits = {0+sky130_fd_pr__pfet_g5v0d10v5__pdits_diff_0}
+ pditsl = 0.0
+ pditsd = {0+sky130_fd_pr__pfet_g5v0d10v5__pditsd_diff_0}
* BSIM4 - Gate Induced Drain Leakage Model Parameters
+ agidl = {7.5e-009+sky130_fd_pr__pfet_g5v0d10v5__agidl_diff_0}
+ bgidl = {1.5572e009+sky130_fd_pr__pfet_g5v0d10v5__bgidl_diff_0}
+ cgidl = {264.48+sky130_fd_pr__pfet_g5v0d10v5__cgidl_diff_0}
+ egidl = 0.66526877
* BSIM4 - Gate Leakage Current Parameters
+ aigbacc = 0.43
+ bigbacc = 0.054
+ cigbacc = 0.075
+ nigbacc = 1.0
+ aigbinv = 0.35
+ bigbinv = 0.03
+ cigbinv = 0.006
+ eigbinv = 1.1
+ nigbinv = 3.0
+ aigc = 0.43
+ bigc = 0.054
+ cigc = 0.075
+ nigc = 1.0
+ aigsd = 0.43
+ bigsd = 0.054
+ cigsd = 0.075
+ dlcig = 0.0
+ poxedge = 1.0
+ pigcd = 1.0
+ ntox = 1.0
+ toxref = 1.175e-8
* Temperature Effects Parameters
+ kt1 = {-0.60348+sky130_fd_pr__pfet_g5v0d10v5__kt1_diff_0}
+ kt2 = -0.019032
+ at = 18000.0
+ ute = -1.3724
+ ua1 = 5.52e-10
+ ub1 = -2.16e-18
+ uc1 = -4.1496e-11
+ kt1l = 0.0
+ prt = 0.0
* BSIM4 - High Speed RF Model Parameters
+ xrcrg1 = 12.0
+ xrcrg2 = 1.0
+ rbpb = 50.0
+ rbpd = 50.0
+ rbps = 50.0
+ rbdb = 50.0
+ rbsb = 50.0
+ gbmin = 1.0e-12
* BSIM4 - Flicker and Thermal Noise Parameters
+ noia = 3.0000000e+40
+ noib = 8.5300000e+24
+ noic = 8.4000000e+7
+ em = 4.1000000e+7
+ af = 1.0
+ ef = 0.88
+ kf = 0.0
+ ntnoi = 1.0
* BSIM4 - Layout Dependent Parasitic Model Parameters
+ dmcg = 0.0
+ dmcgt = 0.0
+ dmdg = 0.0
+ xgw = 0.0
+ xgl = 0.0
+ ngcon = 1.0
* Diode DC IV Parameters
* BSIM4 - Diode DC IV parameters
+ diomod = 1.0
+ njs = 1.3632
+ jss = 2.1483e-5
+ jsws = 4.02e-12
+ xtis = 10.0
+ bvs = 12.69
+ xjbvs = 1.0
+ ijthsrev = 0.1
+ ijthsfwd = 0.1
* Diode and FET Capacitance Parameters
+ tpb = 0.001671
+ tpbsw = 0.0
+ tpbswg = 0.0
+ tcj = 0.00096
+ tcjsw = 3.0e-5
+ tcjswg = 0.0
+ cgdo = {1.9771e-010*sky130_fd_pr__pfet_g5v0d10v5__overlap_mult}
+ cgso = {1.9771e-010*sky130_fd_pr__pfet_g5v0d10v5__overlap_mult}
+ cgbo = 0.0
+ capmod = 2.0
+ xpart = 0.0
+ cgsl = {1.0005e-011*sky130_fd_pr__pfet_g5v0d10v5__overlap_mult}
+ cgdl = {1.0005e-011*sky130_fd_pr__pfet_g5v0d10v5__overlap_mult}
+ cf = 1.2e-11
+ clc = 1.0e-7
+ cle = 0.6
+ dlc = {4.4983e-008+sky130_fd_pr__pfet_g5v0d10v5__dlc_diff+sky130_fd_pr__pfet_g5v0d10v5__dlc_rotweak}
+ dwc = {0+sky130_fd_pr__pfet_g5v0d10v5__dwc_diff}
+ vfbcv = -0.1446893
+ acde = 0.401
+ moin = 15.773
+ noff = 4.0
+ voffcv = 0.0
+ ngate = 1.0e+23
+ lwc = 0.0
+ llc = 0.0
+ lwlc = 0.0
+ wlc = 0.0
+ wwc = 0.0
+ wwlc = 0.0
* BSIM4 - FET and Diode capacitance parameters
+ ckappas = 0.6
+ cjs = {0.00077547*sky130_fd_pr__pfet_g5v0d10v5__ajunction_mult}
+ mjs = 0.33956
+ pbs = 0.6587
+ cjsws = {9.8717e-011*sky130_fd_pr__pfet_g5v0d10v5__pjunction_mult}
+ mjsws = 0.24676
+ pbsws = 1.0
+ cjswgs = {1.46e-010*sky130_fd_pr__pfet_g5v0d10v5__pjunction_mult}
+ mjswgs = 0.81
+ pbswgs = 3.0
* Stress Parameters
+ saref = 1.81e-6
+ sbref = 1.81e-6
+ wlod = {0+sky130_fd_pr__pfet_g5v0d10v5__wlod_diff}
+ kvth0 = {0+sky130_fd_pr__pfet_g5v0d10v5__kvth0_diff}
+ lkvth0 = {0+sky130_fd_pr__pfet_g5v0d10v5__lkvth0_diff}
+ wkvth0 = {0+sky130_fd_pr__pfet_g5v0d10v5__wkvth0_diff}
+ pkvth0 = 0.0
+ llodvth = 0.0
+ wlodvth = 1.0
+ stk2 = 0.0
+ lodk2 = 1.0
+ lodeta0 = 1.0
+ ku0 = {0+sky130_fd_pr__pfet_g5v0d10v5__ku0_diff}
+ lku0 = {0+sky130_fd_pr__pfet_g5v0d10v5__lku0_diff}
+ wku0 = {0+sky130_fd_pr__pfet_g5v0d10v5__wku0_diff}
+ pku0 = 0.0
+ llodku0 = 0.0
+ wlodku0 = 1.0
+ kvsat = {0+sky130_fd_pr__pfet_g5v0d10v5__kvsat_diff}
+ steta0 = 0.0
+ tku0 = 0.0
.model sky130_fd_pr__pfet_g5v0d10v5__model.1 pmos
* DC IV MOS Parameters
+ lmin = 9.95e-07 lmax = 1.005e-06 wmin = 1.4995e-05 wmax = 1.5005e-5
+ level = 54.0
+ tnom = 30.0
+ version = 4.5
+ toxm = 1.175e-8
+ xj = 1.5e-7
+ lln = 1.0
+ lwn = 1.0
+ wln = 1.0
+ wwn = 1.0
+ lint = {4.5375e-008+sky130_fd_pr__pfet_g5v0d10v5__lint_diff}
+ ll = 0.0
+ lw = 0.0
+ lwl = 0.0
+ wint = {1.2277e-008+sky130_fd_pr__pfet_g5v0d10v5__wint_diff}
+ wl = 0.0
+ ww = 0.0
+ wwl = 0.0
+ xl = 0.0
+ xw = 0.0
+ mobmod = 0.0
+ binunit = 2.0
+ dwg = -4.7338e-9
+ dwb = 0.0
* BSIM4 - Model Selectors
+ igcmod = 0.0
+ igbmod = 0.0
+ rgatemod = 0.0
+ rbodymod = 1.0
+ trnqsmod = 0.0
+ acnqsmod = 0.0
+ fnoimod = 1.0
+ tnoimod = 1.0
+ permod = 1.0
+ geomod = 0.0
+ rdsmod = 0.0
+ tempmod = 0.0
+ lintnoi = 0.0
+ vfbsdoff = 0.0
+ lambda = 0.0
+ vtl = 0.0
+ lc = 5.0e-9
+ xn = 3.0
+ rnoia = 0.577
+ rnoib = 0.37
+ tnoia = 1.5
+ tnoib = 3.5
* BSIM4 - Process Parameters
+ epsrox = 3.9
+ toxe = {1.175e-008*sky130_fd_pr__pfet_g5v0d10v5__toxe_mult+sky130_fd_pr__pfet_g5v0d10v5__toxe_slope_spectre*(1.175e-08*sky130_fd_pr__pfet_g5v0d10v5__toxe_mult*(sky130_fd_pr__pfet_g5v0d10v5__toxe_slope/sqrt(l*w*mult)))}
+ dtox = 0.0
+ ndep = 1.7e+17
+ nsd = 1.0e+20
+ rshg = 0.1
+ rsh = {1*sky130_fd_pr__pfet_g5v0d10v5__rshp_mult}
* Threshold Voltage Parameters
+ vth0 = {-0.9724+sky130_fd_pr__pfet_g5v0d10v5__vth0_diff_1+sky130_fd_pr__pfet_g5v0d10v5__vth0_slope_spectre*(sky130_fd_pr__pfet_g5v0d10v5__vth0_slope/sqrt(l*w*mult))}
+ k1 = 0.57939
+ k2 = {0.020277+sky130_fd_pr__pfet_g5v0d10v5__k2_diff_1}
+ k3 = -2.2405
+ dvt0 = 4.657
+ dvt1 = 0.34864
+ dvt2 = -0.030206
+ dvt0w = -2.2
+ dvt1w = 1016300.0
+ dvt2w = 0.0
+ w0 = 0.0
+ k3b = -0.172
* NEW BSIM4 Parameters for Level 54
+ phin = 0.0
+ lpe0 = 0.0
+ lpeb = 0.0
+ vbm = -3.0
+ dvtp0 = 0.0
+ dvtp1 = 0.0
* Mobility Parameters
+ vsat = {47889+sky130_fd_pr__pfet_g5v0d10v5__vsat_diff_1}
+ ua = {1.6494295e-009+sky130_fd_pr__pfet_g5v0d10v5__ua_diff_1}
+ ub = {1.0975e-018+sky130_fd_pr__pfet_g5v0d10v5__ub_diff_1}
+ uc = -5.8546e-13
+ rdsw = {788.47+sky130_fd_pr__pfet_g5v0d10v5__rdsw_diff_1}
+ prwb = 0.053538
+ prwg = 0.0
+ wr = 1.0
+ u0 = {0.020384+sky130_fd_pr__pfet_g5v0d10v5__u0_diff_1}
+ a0 = {0.85515+sky130_fd_pr__pfet_g5v0d10v5__a0_diff_1}
+ keta = {-0.084672+sky130_fd_pr__pfet_g5v0d10v5__keta_diff_1}
+ a1 = 0.0
+ a2 = 0.5
+ ags = {0.77943+sky130_fd_pr__pfet_g5v0d10v5__ags_diff_1}
+ b0 = {0+sky130_fd_pr__pfet_g5v0d10v5__b0_diff_1}
+ b1 = {0+sky130_fd_pr__pfet_g5v0d10v5__b1_diff_1}
* BSIM4 - Mobility Parameters
+ eu = 1.67
+ rdswmin = 0.0
+ rdw = 0.0
+ rdwmin = 0.0
+ rsw = 0.0
+ rswmin = 0.0
* Subthreshold Current Parameters
+ voff = {-0.077755783+sky130_fd_pr__pfet_g5v0d10v5__voff_diff_1+sky130_fd_pr__pfet_g5v0d10v5__voff_slope_spectre*(sky130_fd_pr__pfet_g5v0d10v5__voff_slope/sqrt(l*w*mult))}
+ nfactor = {1.3116+sky130_fd_pr__pfet_g5v0d10v5__nfactor_diff_1+sky130_fd_pr__pfet_g5v0d10v5__nfactor_slope_spectre*(sky130_fd_pr__pfet_g5v0d10v5__nfactor_slope/sqrt(l*w*mult))}
+ up = 0.0
+ ud = 0.0
+ lp = 1.0
+ tvfbsdoff = 0.0
+ tvoff = {0+sky130_fd_pr__pfet_g5v0d10v5__tvoff_diff_1}
+ cit = 5.0e-6
+ cdsc = 0.0
+ cdscb = 0.0
+ cdscd = 0.0
+ eta0 = {4.2119e-005+sky130_fd_pr__pfet_g5v0d10v5__eta0_diff_1}
+ etab = 0.0
+ dsub = 0.54416
* BSIM4 - Sub-threshold parameters
+ voffl = 0.0
+ minv = 0.0
* Rout Parameters
+ pclm = {1.2031+sky130_fd_pr__pfet_g5v0d10v5__pclm_diff_1}
+ pdiblc1 = 0.3995264
+ pdiblc2 = 0.0015061847
+ pdiblcb = -0.025
+ drout = 0.41068941
+ pscbe1 = 2.994803e+8
+ pscbe2 = 1.4554569e-8
+ pvag = 0.0
+ delta = 0.01
+ alpha0 = 6.7813161e-5
+ alpha1 = 0.0
+ beta0 = 50.152925
* BSIM4 - Rout Parameters
+ fprout = 0.0
+ pdits = {0+sky130_fd_pr__pfet_g5v0d10v5__pdits_diff_1}
+ pditsl = 0.0
+ pditsd = {0+sky130_fd_pr__pfet_g5v0d10v5__pditsd_diff_1}
* BSIM4 - Gate Induced Drain Leakage Model Parameters
+ agidl = {8.3464e-009+sky130_fd_pr__pfet_g5v0d10v5__agidl_diff_1}
+ bgidl = {1.6889e009+sky130_fd_pr__pfet_g5v0d10v5__bgidl_diff_1}
+ cgidl = {368+sky130_fd_pr__pfet_g5v0d10v5__cgidl_diff_1}
+ egidl = 0.77897916
* BSIM4 - Gate Leakage Current Parameters
+ aigbacc = 0.43
+ bigbacc = 0.054
+ cigbacc = 0.075
+ nigbacc = 1.0
+ aigbinv = 0.35
+ bigbinv = 0.03
+ cigbinv = 0.006
+ eigbinv = 1.1
+ nigbinv = 3.0
+ aigc = 0.43
+ bigc = 0.054
+ cigc = 0.075
+ nigc = 1.0
+ aigsd = 0.43
+ bigsd = 0.054
+ cigsd = 0.075
+ dlcig = 0.0
+ poxedge = 1.0
+ pigcd = 1.0
+ ntox = 1.0
+ toxref = 1.175e-8
* Temperature Effects Parameters
+ kt1 = {-0.6412+sky130_fd_pr__pfet_g5v0d10v5__kt1_diff_1}
+ kt2 = -0.019032
+ at = 31800.0
+ ute = -1.6069
+ ua1 = 4.1982e-10
+ ub1 = -3.8064e-18
+ uc1 = -1.092e-10
+ kt1l = 0.0
+ prt = 0.0
* BSIM4 - High Speed RF Model Parameters
+ xrcrg1 = 12.0
+ xrcrg2 = 1.0
+ rbpb = 50.0
+ rbpd = 50.0
+ rbps = 50.0
+ rbdb = 50.0
+ rbsb = 50.0
+ gbmin = 1.0e-12
* BSIM4 - Flicker and Thermal Noise Parameters
+ noia = 3.0000000e+40
+ noib = 8.5300000e+24
+ noic = 8.4000000e+7
+ em = 4.1000000e+7
+ af = 1.0
+ ef = 0.88
+ kf = 0.0
+ ntnoi = 1.0
* BSIM4 - Layout Dependent Parasitic Model Parameters
+ dmcg = 0.0
+ dmcgt = 0.0
+ dmdg = 0.0
+ xgw = 0.0
+ xgl = 0.0
+ ngcon = 1.0
* Diode DC IV Parameters
* BSIM4 - Diode DC IV parameters
+ diomod = 1.0
+ njs = 1.3632
+ jss = 2.1483e-5
+ jsws = 4.02e-12
+ xtis = 10.0
+ bvs = 12.69
+ xjbvs = 1.0
+ ijthsrev = 0.1
+ ijthsfwd = 0.1
* Diode and FET Capacitance Parameters
+ tpb = 0.001671
+ tpbsw = 0.0
+ tpbswg = 0.0
+ tcj = 0.00096
+ tcjsw = 3.0e-5
+ tcjswg = 0.0
+ cgdo = {1.9771e-010*sky130_fd_pr__pfet_g5v0d10v5__overlap_mult}
+ cgso = {1.9771e-010*sky130_fd_pr__pfet_g5v0d10v5__overlap_mult}
+ cgbo = 0.0
+ capmod = 2.0
+ xpart = 0.0
+ cgsl = {1.0005e-011*sky130_fd_pr__pfet_g5v0d10v5__overlap_mult}
+ cgdl = {1.0005e-011*sky130_fd_pr__pfet_g5v0d10v5__overlap_mult}
+ cf = 1.2e-11
+ clc = 1.0e-7
+ cle = 0.6
+ dlc = {4.4983e-008+sky130_fd_pr__pfet_g5v0d10v5__dlc_diff+sky130_fd_pr__pfet_g5v0d10v5__dlc_rotweak}
+ dwc = {0+sky130_fd_pr__pfet_g5v0d10v5__dwc_diff}
+ vfbcv = -0.1446893
+ acde = 0.401
+ moin = 15.773
+ noff = 4.0
+ voffcv = 0.0
+ ngate = 1.0e+23
+ lwc = 0.0
+ llc = 0.0
+ lwlc = 0.0
+ wlc = 0.0
+ wwc = 0.0
+ wwlc = 0.0
* BSIM4 - FET and Diode capacitance parameters
+ ckappas = 0.6
+ cjs = {0.00077547*sky130_fd_pr__pfet_g5v0d10v5__ajunction_mult}
+ mjs = 0.33956
+ pbs = 0.6587
+ cjsws = {9.8717e-011*sky130_fd_pr__pfet_g5v0d10v5__pjunction_mult}
+ mjsws = 0.24676
+ pbsws = 1.0
+ cjswgs = {1.46e-010*sky130_fd_pr__pfet_g5v0d10v5__pjunction_mult}
+ mjswgs = 0.81
+ pbswgs = 3.0
* Stress Parameters
+ saref = 2.81e-6
+ sbref = 2.81e-6
+ wlod = {0+sky130_fd_pr__pfet_g5v0d10v5__wlod_diff}
+ kvth0 = {0+sky130_fd_pr__pfet_g5v0d10v5__kvth0_diff}
+ lkvth0 = {0+sky130_fd_pr__pfet_g5v0d10v5__lkvth0_diff}
+ wkvth0 = {0+sky130_fd_pr__pfet_g5v0d10v5__wkvth0_diff}
+ pkvth0 = 0.0
+ llodvth = 0.0
+ wlodvth = 1.0
+ stk2 = 0.0
+ lodk2 = 1.0
+ lodeta0 = 1.0
+ ku0 = {0+sky130_fd_pr__pfet_g5v0d10v5__ku0_diff}
+ lku0 = {0+sky130_fd_pr__pfet_g5v0d10v5__lku0_diff}
+ wku0 = {0+sky130_fd_pr__pfet_g5v0d10v5__wku0_diff}
+ pku0 = 0.0
+ llodku0 = 0.0
+ wlodku0 = 1.0
+ kvsat = {0+sky130_fd_pr__pfet_g5v0d10v5__kvsat_diff}
+ steta0 = 0.0
+ tku0 = 0.0
.model sky130_fd_pr__pfet_g5v0d10v5__model.2 pmos
* DC IV MOS Parameters
+ lmin = 4.95e-07 lmax = 5.05e-07 wmin = 1.4995e-05 wmax = 1.5005e-5
+ level = 54.0
+ tnom = 30.0
+ version = 4.5
+ toxm = 1.175e-8
+ xj = 1.5e-7
+ lln = 1.0
+ lwn = 1.0
+ wln = 1.0
+ wwn = 1.0
+ lint = {4.5375e-008+sky130_fd_pr__pfet_g5v0d10v5__lint_diff}
+ ll = 0.0
+ lw = 0.0
+ lwl = 0.0
+ wint = {1.2277e-008+sky130_fd_pr__pfet_g5v0d10v5__wint_diff}
+ wl = 0.0
+ ww = 0.0
+ wwl = 0.0
+ xl = 0.0
+ xw = 0.0
+ mobmod = 0.0
+ binunit = 2.0
+ dwg = -4.7338e-9
+ dwb = 0.0
* BSIM4 - Model Selectors
+ igcmod = 0.0
+ igbmod = 0.0
+ rgatemod = 0.0
+ rbodymod = 1.0
+ trnqsmod = 0.0
+ acnqsmod = 0.0
+ fnoimod = 1.0
+ tnoimod = 1.0
+ permod = 1.0
+ geomod = 0.0
+ rdsmod = 0.0
+ tempmod = 0.0
+ lintnoi = 0.0
+ vfbsdoff = 0.0
+ lambda = 0.0
+ vtl = 0.0
+ lc = 5.0e-9
+ xn = 3.0
+ rnoia = 0.577
+ rnoib = 0.37
+ tnoia = 1.5
+ tnoib = 3.5
* BSIM4 - Process Parameters
+ epsrox = 3.9
+ toxe = {1.175e-008*sky130_fd_pr__pfet_g5v0d10v5__toxe_mult+sky130_fd_pr__pfet_g5v0d10v5__toxe_slope_spectre*(1.175e-08*sky130_fd_pr__pfet_g5v0d10v5__toxe_mult*(sky130_fd_pr__pfet_g5v0d10v5__toxe_slope/sqrt(l*w*mult)))}
+ dtox = 0.0
+ ndep = 1.7e+17
+ nsd = 1.0e+20
+ rshg = 0.1
+ rsh = {1*sky130_fd_pr__pfet_g5v0d10v5__rshp_mult}
* Threshold Voltage Parameters
+ vth0 = {-0.9885+sky130_fd_pr__pfet_g5v0d10v5__vth0_diff_2+sky130_fd_pr__pfet_g5v0d10v5__vth0_slope_spectre*(sky130_fd_pr__pfet_g5v0d10v5__vth0_slope/sqrt(l*w*mult))}
+ k1 = 0.59804
+ k2 = {0.024041+sky130_fd_pr__pfet_g5v0d10v5__k2_diff_2}
+ k3 = -2.2405
+ dvt0 = 4.657
+ dvt1 = 0.34864
+ dvt2 = -0.030206
+ dvt0w = -2.2
+ dvt1w = 1016300.0
+ dvt2w = 0.0
+ w0 = 0.0
+ k3b = -0.172
* NEW BSIM4 Parameters for Level 54
+ phin = 0.0
+ lpe0 = 0.0
+ lpeb = 0.0
+ vbm = -3.0
+ dvtp0 = 0.0
+ dvtp1 = 0.0
* Mobility Parameters
+ vsat = {67000+sky130_fd_pr__pfet_g5v0d10v5__vsat_diff_2}
+ ua = {2.1590772e-009+sky130_fd_pr__pfet_g5v0d10v5__ua_diff_2}
+ ub = {9.5539e-019+sky130_fd_pr__pfet_g5v0d10v5__ub_diff_2}
+ uc = -5.2815e-12
+ rdsw = {788.47+sky130_fd_pr__pfet_g5v0d10v5__rdsw_diff_2}
+ prwb = 0.053538
+ prwg = 0.0
+ wr = 1.0
+ u0 = {0.022+sky130_fd_pr__pfet_g5v0d10v5__u0_diff_2}
+ a0 = {0.95964+sky130_fd_pr__pfet_g5v0d10v5__a0_diff_2}
+ keta = {-0.08587+sky130_fd_pr__pfet_g5v0d10v5__keta_diff_2}
+ a1 = 0.0
+ a2 = 0.5
+ ags = {1.25+sky130_fd_pr__pfet_g5v0d10v5__ags_diff_2}
+ b0 = {0+sky130_fd_pr__pfet_g5v0d10v5__b0_diff_2}
+ b1 = {0+sky130_fd_pr__pfet_g5v0d10v5__b1_diff_2}
* BSIM4 - Mobility Parameters
+ eu = 1.67
+ rdswmin = 0.0
+ rdw = 0.0
+ rdwmin = 0.0
+ rsw = 0.0
+ rswmin = 0.0
* Subthreshold Current Parameters
+ voff = {-0.10153677+sky130_fd_pr__pfet_g5v0d10v5__voff_diff_2+sky130_fd_pr__pfet_g5v0d10v5__voff_slope_spectre*(sky130_fd_pr__pfet_g5v0d10v5__voff_slope/sqrt(l*w*mult))}
+ nfactor = {1.1999+sky130_fd_pr__pfet_g5v0d10v5__nfactor_diff_2+sky130_fd_pr__pfet_g5v0d10v5__nfactor_slope_spectre*(sky130_fd_pr__pfet_g5v0d10v5__nfactor_slope/sqrt(l*w*mult))}
+ up = 0.0
+ ud = 0.0
+ lp = 1.0
+ tvfbsdoff = 0.0
+ tvoff = {0+sky130_fd_pr__pfet_g5v0d10v5__tvoff_diff_2}
+ cit = 5.0e-6
+ cdsc = 0.0
+ cdscb = 0.0
+ cdscd = 0.0
+ eta0 = {0.068847+sky130_fd_pr__pfet_g5v0d10v5__eta0_diff_2}
+ etab = -0.0038503
+ dsub = 0.27967
* BSIM4 - Sub-threshold parameters
+ voffl = 0.0
+ minv = 0.0
* Rout Parameters
+ pclm = {1.3366+sky130_fd_pr__pfet_g5v0d10v5__pclm_diff_2}
+ pdiblc1 = 0.29403034
+ pdiblc2 = 0.0048008826
+ pdiblcb = -0.025
+ drout = 0.89960455
+ pscbe1 = 3.6263996e+8
+ pscbe2 = 1.448673e-8
+ pvag = 0.0
+ delta = 0.01
+ alpha0 = 9.713535e-5
+ alpha1 = 0.0
+ beta0 = 54.684511
* BSIM4 - Rout Parameters
+ fprout = 0.0
+ pdits = {0+sky130_fd_pr__pfet_g5v0d10v5__pdits_diff_2}
+ pditsl = 0.0
+ pditsd = {0+sky130_fd_pr__pfet_g5v0d10v5__pditsd_diff_2}
* BSIM4 - Gate Induced Drain Leakage Model Parameters
+ agidl = {1.3668e-008+sky130_fd_pr__pfet_g5v0d10v5__agidl_diff_2}
+ bgidl = {1.6195e009+sky130_fd_pr__pfet_g5v0d10v5__bgidl_diff_2}
+ cgidl = {316.68+sky130_fd_pr__pfet_g5v0d10v5__cgidl_diff_2}
+ egidl = 0.66526877
* BSIM4 - Gate Leakage Current Parameters
+ aigbacc = 0.43
+ bigbacc = 0.054
+ cigbacc = 0.075
+ nigbacc = 1.0
+ aigbinv = 0.35
+ bigbinv = 0.03
+ cigbinv = 0.006
+ eigbinv = 1.1
+ nigbinv = 3.0
+ aigc = 0.43
+ bigc = 0.054
+ cigc = 0.075
+ nigc = 1.0
+ aigsd = 0.43
+ bigsd = 0.054
+ cigsd = 0.075
+ dlcig = 0.0
+ poxedge = 1.0
+ pigcd = 1.0
+ ntox = 1.0
+ toxref = 1.175e-8
* Temperature Effects Parameters
+ kt1 = {-0.60348+sky130_fd_pr__pfet_g5v0d10v5__kt1_diff_2}
+ kt2 = -0.019032
+ at = 18000.0
+ ute = -1.3724
+ ua1 = 5.52e-10
+ ub1 = -2.16e-18
+ uc1 = -4.1496e-11
+ kt1l = 0.0
+ prt = 0.0
* BSIM4 - High Speed RF Model Parameters
+ xrcrg1 = 12.0
+ xrcrg2 = 1.0
+ rbpb = 50.0
+ rbpd = 50.0
+ rbps = 50.0
+ rbdb = 50.0
+ rbsb = 50.0
+ gbmin = 1.0e-12
* BSIM4 - Flicker and Thermal Noise Parameters
+ noia = 3.0000000e+40
+ noib = 8.5300000e+24
+ noic = 8.4000000e+7
+ em = 4.1000000e+7
+ af = 1.0
+ ef = 0.88
+ kf = 0.0
+ ntnoi = 1.0
* BSIM4 - Layout Dependent Parasitic Model Parameters
+ dmcg = 0.0
+ dmcgt = 0.0
+ dmdg = 0.0
+ xgw = 0.0
+ xgl = 0.0
+ ngcon = 1.0
* Diode DC IV Parameters
* BSIM4 - Diode DC IV parameters
+ diomod = 1.0
+ njs = 1.3632
+ jss = 2.1483e-5
+ jsws = 4.02e-12
+ xtis = 10.0
+ bvs = 12.69
+ xjbvs = 1.0
+ ijthsrev = 0.1
+ ijthsfwd = 0.1
* Diode and FET Capacitance Parameters
+ tpb = 0.001671
+ tpbsw = 0.0
+ tpbswg = 0.0
+ tcj = 0.00096
+ tcjsw = 3.0e-5
+ tcjswg = 0.0
+ cgdo = {1.9771e-010*sky130_fd_pr__pfet_g5v0d10v5__overlap_mult}
+ cgso = {1.9771e-010*sky130_fd_pr__pfet_g5v0d10v5__overlap_mult}
+ cgbo = 0.0
+ capmod = 2.0
+ xpart = 0.0
+ cgsl = {1.0005e-011*sky130_fd_pr__pfet_g5v0d10v5__overlap_mult}
+ cgdl = {1.0005e-011*sky130_fd_pr__pfet_g5v0d10v5__overlap_mult}
+ cf = 1.2e-11
+ clc = 1.0e-7
+ cle = 0.6
+ dlc = {4.4983e-008+sky130_fd_pr__pfet_g5v0d10v5__dlc_diff+sky130_fd_pr__pfet_g5v0d10v5__dlc_rotweak}
+ dwc = {0+sky130_fd_pr__pfet_g5v0d10v5__dwc_diff}
+ vfbcv = -0.1446893
+ acde = 0.401
+ moin = 15.773
+ noff = 4.0
+ voffcv = 0.0
+ ngate = 1.0e+23
+ lwc = 0.0
+ llc = 0.0
+ lwlc = 0.0
+ wlc = 0.0
+ wwc = 0.0
+ wwlc = 0.0
* BSIM4 - FET and Diode capacitance parameters
+ ckappas = 0.6
+ cjs = {0.00077547*sky130_fd_pr__pfet_g5v0d10v5__ajunction_mult}
+ mjs = 0.33956
+ pbs = 0.6587
+ cjsws = {9.8717e-011*sky130_fd_pr__pfet_g5v0d10v5__pjunction_mult}
+ mjsws = 0.24676
+ pbsws = 1.0
+ cjswgs = {1.46e-010*sky130_fd_pr__pfet_g5v0d10v5__pjunction_mult}
+ mjswgs = 0.81
+ pbswgs = 3.0
* Stress Parameters
+ saref = 1.81e-6
+ sbref = 1.81e-6
+ wlod = {0+sky130_fd_pr__pfet_g5v0d10v5__wlod_diff}
+ kvth0 = {0+sky130_fd_pr__pfet_g5v0d10v5__kvth0_diff}
+ lkvth0 = {0+sky130_fd_pr__pfet_g5v0d10v5__lkvth0_diff}
+ wkvth0 = {0+sky130_fd_pr__pfet_g5v0d10v5__wkvth0_diff}
+ pkvth0 = 0.0
+ llodvth = 0.0
+ wlodvth = 1.0
+ stk2 = 0.0
+ lodk2 = 1.0
+ lodeta0 = 1.0
+ ku0 = {0+sky130_fd_pr__pfet_g5v0d10v5__ku0_diff}
+ lku0 = {0+sky130_fd_pr__pfet_g5v0d10v5__lku0_diff}
+ wku0 = {0+sky130_fd_pr__pfet_g5v0d10v5__wku0_diff}
+ pku0 = 0.0
+ llodku0 = 0.0
+ wlodku0 = 1.0
+ kvsat = {0+sky130_fd_pr__pfet_g5v0d10v5__kvsat_diff}
+ steta0 = 0.0
+ tku0 = 0.0
.model sky130_fd_pr__pfet_g5v0d10v5__model.3 pmos
* DC IV MOS Parameters
+ lmin = 9.95e-07 lmax = 1.005e-06 wmin = 1.495e-06 wmax = 1.505e-6
+ level = 54.0
+ tnom = 30.0
+ version = 4.5
+ toxm = 1.175e-8
+ xj = 1.5e-7
+ lln = 1.0
+ lwn = 1.0
+ wln = 1.0
+ wwn = 1.0
+ lint = {4.5375e-008+sky130_fd_pr__pfet_g5v0d10v5__lint_diff}
+ ll = 0.0
+ lw = 0.0
+ lwl = 0.0
+ wint = {1.2277e-008+sky130_fd_pr__pfet_g5v0d10v5__wint_diff}
+ wl = 0.0
+ ww = 0.0
+ wwl = 0.0
+ xl = 0.0
+ xw = 0.0
+ mobmod = 0.0
+ binunit = 2.0
+ dwg = -4.7338e-9
+ dwb = 0.0
* BSIM4 - Model Selectors
+ igcmod = 0.0
+ igbmod = 0.0
+ rgatemod = 0.0
+ rbodymod = 1.0
+ trnqsmod = 0.0
+ acnqsmod = 0.0
+ fnoimod = 1.0
+ tnoimod = 1.0
+ permod = 1.0
+ geomod = 0.0
+ rdsmod = 0.0
+ tempmod = 0.0
+ lintnoi = 0.0
+ vfbsdoff = 0.0
+ lambda = 0.0
+ vtl = 0.0
+ lc = 5.0e-9
+ xn = 3.0
+ rnoia = 0.577
+ rnoib = 0.37
+ tnoia = 1.5
+ tnoib = 3.5
* BSIM4 - Process Parameters
+ epsrox = 3.9
+ toxe = {1.175e-008*sky130_fd_pr__pfet_g5v0d10v5__toxe_mult+sky130_fd_pr__pfet_g5v0d10v5__toxe_slope_spectre*(1.175e-08*sky130_fd_pr__pfet_g5v0d10v5__toxe_mult*(sky130_fd_pr__pfet_g5v0d10v5__toxe_slope/sqrt(l*w*mult)))}
+ dtox = 0.0
+ ndep = 1.7e+17
+ nsd = 1.0e+20
+ rshg = 0.1
+ rsh = {1*sky130_fd_pr__pfet_g5v0d10v5__rshp_mult}
* Threshold Voltage Parameters
+ vth0 = {-0.94224+sky130_fd_pr__pfet_g5v0d10v5__vth0_diff_3+sky130_fd_pr__pfet_g5v0d10v5__vth0_slope_spectre*(sky130_fd_pr__pfet_g5v0d10v5__vth0_slope/sqrt(l*w*mult))}
+ k1 = 0.58139
+ k2 = {0.019018+sky130_fd_pr__pfet_g5v0d10v5__k2_diff_3}
+ k3 = -2.2405
+ dvt0 = 4.657
+ dvt1 = 0.34864
+ dvt2 = -0.030206
+ dvt0w = -2.2
+ dvt1w = 1016300.0
+ dvt2w = 0.0
+ w0 = 0.0
+ k3b = -0.172
* NEW BSIM4 Parameters for Level 54
+ phin = 0.0
+ lpe0 = 0.0
+ lpeb = 0.0
+ vbm = -3.0
+ dvtp0 = 0.0
+ dvtp1 = 0.0
* Mobility Parameters
+ vsat = {150350+sky130_fd_pr__pfet_g5v0d10v5__vsat_diff_3}
+ ua = {2.6796985e-009+sky130_fd_pr__pfet_g5v0d10v5__ua_diff_3}
+ ub = {1.7457e-019+sky130_fd_pr__pfet_g5v0d10v5__ub_diff_3}
+ uc = -1.4632e-12
+ rdsw = {788.47+sky130_fd_pr__pfet_g5v0d10v5__rdsw_diff_3}
+ prwb = 0.053538
+ prwg = 0.0
+ wr = 1.0
+ u0 = {0.020291+sky130_fd_pr__pfet_g5v0d10v5__u0_diff_3}
+ a0 = {0.85794+sky130_fd_pr__pfet_g5v0d10v5__a0_diff_3}
+ keta = {-0.0096207+sky130_fd_pr__pfet_g5v0d10v5__keta_diff_3}
+ a1 = 0.0
+ a2 = 0.5
+ ags = {0.13498+sky130_fd_pr__pfet_g5v0d10v5__ags_diff_3}
+ b0 = {0+sky130_fd_pr__pfet_g5v0d10v5__b0_diff_3}
+ b1 = {0+sky130_fd_pr__pfet_g5v0d10v5__b1_diff_3}
* BSIM4 - Mobility Parameters
+ eu = 1.67
+ rdswmin = 0.0
+ rdw = 0.0
+ rdwmin = 0.0
+ rsw = 0.0
+ rswmin = 0.0
* Subthreshold Current Parameters
+ voff = {-0.099014101+sky130_fd_pr__pfet_g5v0d10v5__voff_diff_3+sky130_fd_pr__pfet_g5v0d10v5__voff_slope_spectre*(sky130_fd_pr__pfet_g5v0d10v5__voff_slope/sqrt(l*w*mult))}
+ nfactor = {1.0709+sky130_fd_pr__pfet_g5v0d10v5__nfactor_diff_3+sky130_fd_pr__pfet_g5v0d10v5__nfactor_slope_spectre*(sky130_fd_pr__pfet_g5v0d10v5__nfactor_slope/sqrt(l*w*mult))}
+ up = 0.0
+ ud = 0.0
+ lp = 1.0
+ tvfbsdoff = 0.0
+ tvoff = {0+sky130_fd_pr__pfet_g5v0d10v5__tvoff_diff_3}
+ cit = 5.0e-6
+ cdsc = 0.0
+ cdscb = 0.0
+ cdscd = 0.0
+ eta0 = {0.08+sky130_fd_pr__pfet_g5v0d10v5__eta0_diff_3}
+ etab = -0.07
+ dsub = 0.56
* BSIM4 - Sub-threshold parameters
+ voffl = 0.0
+ minv = 0.0
* Rout Parameters
+ pclm = {0.84169+sky130_fd_pr__pfet_g5v0d10v5__pclm_diff_3}
+ pdiblc1 = 0.39
+ pdiblc2 = 0.00129
+ pdiblcb = -0.025
+ drout = 0.56
+ pscbe1 = 2.1831475e+8
+ pscbe2 = 1.4985163e-8
+ pvag = 0.0
+ delta = 0.01
+ alpha0 = 2.0150852e-5
+ alpha1 = 0.0
+ beta0 = 37.469254
* BSIM4 - Rout Parameters
+ fprout = 0.0
+ pdits = {0+sky130_fd_pr__pfet_g5v0d10v5__pdits_diff_3}
+ pditsl = 0.0
+ pditsd = {0+sky130_fd_pr__pfet_g5v0d10v5__pditsd_diff_3}
* BSIM4 - Gate Induced Drain Leakage Model Parameters
+ agidl = {1.22e-008+sky130_fd_pr__pfet_g5v0d10v5__agidl_diff_3}
+ bgidl = {1.5831e009+sky130_fd_pr__pfet_g5v0d10v5__bgidl_diff_3}
+ cgidl = {576+sky130_fd_pr__pfet_g5v0d10v5__cgidl_diff_3}
+ egidl = 0.89190707
* BSIM4 - Gate Leakage Current Parameters
+ aigbacc = 0.43
+ bigbacc = 0.054
+ cigbacc = 0.075
+ nigbacc = 1.0
+ aigbinv = 0.35
+ bigbinv = 0.03
+ cigbinv = 0.006
+ eigbinv = 1.1
+ nigbinv = 3.0
+ aigc = 0.43
+ bigc = 0.054
+ cigc = 0.075
+ nigc = 1.0
+ aigsd = 0.43
+ bigsd = 0.054
+ cigsd = 0.075
+ dlcig = 0.0
+ poxedge = 1.0
+ pigcd = 1.0
+ ntox = 1.0
+ toxref = 1.175e-8
* Temperature Effects Parameters
+ kt1 = {-0.6000+sky130_fd_pr__pfet_g5v0d10v5__kt1_diff_3}
+ kt2 = -0.019032
+ at = 10000.0
+ ute = -1.3908
+ ua1 = 5.524e-10
+ ub1 = -3.5909e-18
+ uc1 = -1.092e-10
+ kt1l = 0.0
+ prt = 0.0
* BSIM4 - High Speed RF Model Parameters
+ xrcrg1 = 12.0
+ xrcrg2 = 1.0
+ rbpb = 50.0
+ rbpd = 50.0
+ rbps = 50.0
+ rbdb = 50.0
+ rbsb = 50.0
+ gbmin = 1.0e-12
* BSIM4 - Flicker and Thermal Noise Parameters
+ noia = 3.0000000e+40
+ noib = 8.5300000e+24
+ noic = 8.4000000e+7
+ em = 4.1000000e+7
+ af = 1.0
+ ef = 0.88
+ kf = 0.0
+ ntnoi = 1.0
* BSIM4 - Layout Dependent Parasitic Model Parameters
+ dmcg = 0.0
+ dmcgt = 0.0
+ dmdg = 0.0
+ xgw = 0.0
+ xgl = 0.0
+ ngcon = 1.0
* Diode DC IV Parameters
* BSIM4 - Diode DC IV parameters
+ diomod = 1.0
+ njs = 1.3632
+ jss = 2.1483e-5
+ jsws = 4.02e-12
+ xtis = 10.0
+ bvs = 12.69
+ xjbvs = 1.0
+ ijthsrev = 0.1
+ ijthsfwd = 0.1
* Diode and FET Capacitance Parameters
+ tpb = 0.001671
+ tpbsw = 0.0
+ tpbswg = 0.0
+ tcj = 0.00096
+ tcjsw = 3.0e-5
+ tcjswg = 0.0
+ cgdo = {1.9771e-010*sky130_fd_pr__pfet_g5v0d10v5__overlap_mult}
+ cgso = {1.9771e-010*sky130_fd_pr__pfet_g5v0d10v5__overlap_mult}
+ cgbo = 0.0
+ capmod = 2.0
+ xpart = 0.0
+ cgsl = {1.0005e-011*sky130_fd_pr__pfet_g5v0d10v5__overlap_mult}
+ cgdl = {1.0005e-011*sky130_fd_pr__pfet_g5v0d10v5__overlap_mult}
+ cf = 1.2e-11
+ clc = 1.0e-7
+ cle = 0.6
+ dlc = {4.4983e-008+sky130_fd_pr__pfet_g5v0d10v5__dlc_diff+sky130_fd_pr__pfet_g5v0d10v5__dlc_rotweak}
+ dwc = {0+sky130_fd_pr__pfet_g5v0d10v5__dwc_diff}
+ vfbcv = -0.1446893
+ acde = 0.401
+ moin = 15.773
+ noff = 4.0
+ voffcv = 0.0
+ ngate = 1.0e+23
+ lwc = 0.0
+ llc = 0.0
+ lwlc = 0.0
+ wlc = 0.0
+ wwc = 0.0
+ wwlc = 0.0
* BSIM4 - FET and Diode capacitance parameters
+ ckappas = 0.6
+ cjs = {0.00077547*sky130_fd_pr__pfet_g5v0d10v5__ajunction_mult}
+ mjs = 0.33956
+ pbs = 0.6587
+ cjsws = {9.8717e-011*sky130_fd_pr__pfet_g5v0d10v5__pjunction_mult}
+ mjsws = 0.24676
+ pbsws = 1.0
+ cjswgs = {1.46e-010*sky130_fd_pr__pfet_g5v0d10v5__pjunction_mult}
+ mjswgs = 0.81
+ pbswgs = 3.0
* Stress Parameters
+ saref = 2.81e-6
+ sbref = 2.81e-6
+ wlod = {0+sky130_fd_pr__pfet_g5v0d10v5__wlod_diff}
+ kvth0 = {0+sky130_fd_pr__pfet_g5v0d10v5__kvth0_diff}
+ lkvth0 = {0+sky130_fd_pr__pfet_g5v0d10v5__lkvth0_diff}
+ wkvth0 = {0+sky130_fd_pr__pfet_g5v0d10v5__wkvth0_diff}
+ pkvth0 = 0.0
+ llodvth = 0.0
+ wlodvth = 1.0
+ stk2 = 0.0
+ lodk2 = 1.0
+ lodeta0 = 1.0
+ ku0 = {0+sky130_fd_pr__pfet_g5v0d10v5__ku0_diff}
+ lku0 = {0+sky130_fd_pr__pfet_g5v0d10v5__lku0_diff}