* Copyright 2020 The SkyWater PDK Authors
*
* Licensed under the Apache License, Version 2.0 (the "License");
* you may not use this file except in compliance with the License.
* You may obtain a copy of the License at
*
*     https://www.apache.org/licenses/LICENSE-2.0
*
* Unless required by applicable law or agreed to in writing, software
* distributed under the License is distributed on an "AS IS" BASIS,
* WITHOUT WARRANTIES OR CONDITIONS OF ANY KIND, either express or implied.
* See the License for the specific language governing permissions and
* limitations under the License.

* SKY130 Spice File.
.param sky130_fd_pr__pfet_g5v0d10v5__toxe_slope_spectre = 0.0
.param sky130_fd_pr__pfet_g5v0d10v5__vth0_slope_spectre = 0.0
.param sky130_fd_pr__pfet_g5v0d10v5__voff_slope_spectre = 0.0
.param sky130_fd_pr__pfet_g5v0d10v5__nfactor_slope_spectre = 0.0
* statistics {
*   process {
*   }
*   mismatch {
*     vary sky130_fd_pr__pfet_g5v0d10v5__toxe_slope_spectre dist=gauss std = 1.0
*     vary sky130_fd_pr__pfet_g5v0d10v5__vth0_slope_spectre dist=gauss std = 1.0
*     vary sky130_fd_pr__pfet_g5v0d10v5__voff_slope_spectre dist=gauss std = 1.0
*     vary sky130_fd_pr__pfet_g5v0d10v5__nfactor_slope_spectre dist=gauss std = 1.0
*   }
* }
.subckt  sky130_fd_pr__pfet_g5v0d10v5 d g s b
+ 
.param  l = 1 w = 1 ad = 0 as = 0 pd = 0 ps = 0 nrd = 0 nrs = 0 sa = 0 sb = 0 sd = 0 mult = 1 nf = 1.0
msky130_fd_pr__pfet_g5v0d10v5 d g s b sky130_fd_pr__pfet_g5v0d10v5__model l = {l} w = {w} ad = {ad} as = {as} pd = {pd} ps = {ps} nrd = {nrd} nrs = {nrs} sa = {sa} sb = {sb} sd = {sd} nf = {nf}
.model sky130_fd_pr__pfet_g5v0d10v5__model.0 pmos
* DC IV MOS Parameters
+ lmin = 2.0e-05 lmax = 1.0e-04 wmin = 2.0e-05 wmax = 1.0e-4
+ level = 54.0
+ tnom = 30.0
+ version = 4.5
+ toxm = 1.175e-8
+ xj = 1.5e-7
+ lln = 1.0
+ lwn = 1.0
+ wln = 1.0
+ wwn = 1.0
+ lint = 5.75025e-8
+ ll = 0.0
+ lw = 0.0
+ lwl = 0.0
+ wint = -1.0243e-8
+ wl = 0.0
+ ww = 0.0
+ wwl = 0.0
+ xl = 0.0
+ xw = 0.0
+ mobmod = 0.0
+ binunit = 2.0
+ dwg = -4.7338e-9
+ dwb = 0.0
* BSIM4 - Model Selectors
+ igcmod = 0.0
+ igbmod = 0.0
+ rgatemod = 0.0
+ rbodymod = 1.0
+ trnqsmod = 0.0
+ acnqsmod = 0.0
+ fnoimod = 1.0
+ tnoimod = 1.0
+ permod = 1.0
+ geomod = 0.0
+ rdsmod = 0.0
+ tempmod = 0.0
+ lintnoi = 0.0
+ vfbsdoff = 0.0
+ lambda = 0.0
+ vtl = 0.0
+ lc = 5.0e-9
+ xn = 3.0
+ rnoia = 0.577
+ rnoib = 0.37
+ tnoia = 1.5
+ tnoib = 3.5
* BSIM4 - Process Parameters
+ epsrox = 3.9
+ toxe = {1.12565e-08+sky130_fd_pr__pfet_g5v0d10v5__toxe_slope_spectre*(1.12565e-08*(sky130_fd_pr__pfet_g5v0d10v5__toxe_slope/sqrt(l*w*mult)))}
+ dtox = 0.0
+ ndep = 1.7000000000000000e+17
+ nsd = 1.0e+20
+ rshg = 0.1
+ rsh = 1.0
* Threshold Voltage Parameters
+ vth0 = {-0.979018+sky130_fd_pr__pfet_g5v0d10v5__vth0_slope_spectre*(sky130_fd_pr__pfet_g5v0d10v5__vth0_slope/sqrt(l*w*mult))}
+ k1 = 0.59521
+ k2 = 0.0218501
+ k3 = -2.2405
+ dvt0 = 4.657
+ dvt1 = 0.34864
+ dvt2 = -0.030206
+ dvt0w = -2.2
+ dvt1w = 1016300.0
+ dvt2w = 0.0
+ w0 = 0.0
+ k3b = -0.172
* NEW BSIM4 Parameters for Level 54
+ phin = 0.0
+ lpe0 = 0.0
+ lpeb = 0.0
+ vbm = -3.0
+ dvtp0 = 0.0
+ dvtp1 = 0.0
* Mobility Parameters
+ vsat = 200000.0
+ ua = 2.70482362e-9
+ ub = -1.668e-20
+ uc = -3.9972e-11
+ rdsw = 788.47
+ prwb = 0.053538
+ prwg = 0.0
+ wr = 1.0
+ u0 = 0.0213783
+ a0 = 0.8929174
+ keta = -0.0079259
+ a1 = 0.0
+ a2 = 0.5
+ ags = 0.145547
+ b0 = 0.0
+ b1 = 0.0
* BSIM4 - Mobility Parameters
+ eu = 1.67
+ rdswmin = 0.0
+ rdw = 0.0
+ rdwmin = 0.0
+ rsw = 0.0
+ rswmin = 0.0
* Subthreshold Current Parameters
+ voff = {-0.093204657+sky130_fd_pr__pfet_g5v0d10v5__voff_slope_spectre*(sky130_fd_pr__pfet_g5v0d10v5__voff_slope/sqrt(l*w*mult))}
+ nfactor = {1.76562+sky130_fd_pr__pfet_g5v0d10v5__nfactor_slope_spectre*(sky130_fd_pr__pfet_g5v0d10v5__nfactor_slope/sqrt(l*w*mult))}
+ up = 0.0
+ ud = 0.0
+ lp = 1.0
+ tvfbsdoff = 0.0
+ tvoff = 0.0
+ cit = 1.0e-5
+ cdsc = 0.0
+ cdscb = 0.0
+ cdscd = 0.0
+ eta0 = 0.0800000000000101
+ etab = -0.07
+ dsub = 0.56
* BSIM4 - Sub-threshold parameters
+ voffl = 0.0
+ minv = 0.0
* Rout Parameters
+ pclm = 0.08353125
+ pdiblc1 = 0.39
+ pdiblc2 = 0.0029407877
+ pdiblcb = -0.025
+ drout = 0.56
+ pscbe1 = 333712830.0
+ pscbe2 = 1.5000958e-8
+ pvag = 0.0
+ delta = 0.01
+ alpha0 = 5.0667189e-5
+ alpha1 = 0.0
+ beta0 = 38.266046
* BSIM4 - Rout Parameters
+ fprout = 0.0
+ pdits = 0.0
+ pditsl = 0.0
+ pditsd = 0.0
* BSIM4 - Gate Induced Drain Leakage Model Parameters
+ agidl = 7.3657e-9
+ bgidl = 1704700000.0
+ cgidl = 700.0
+ egidl = 0.69350825
* BSIM4 - Gate Leakage Current Parameters
+ aigbacc = 0.43
+ bigbacc = 0.054
+ cigbacc = 0.075
+ nigbacc = 1.0
+ aigbinv = 0.35
+ bigbinv = 0.03
+ cigbinv = 0.006
+ eigbinv = 1.1
+ nigbinv = 3.0
+ aigc = 0.43
+ bigc = 0.054
+ cigc = 0.075
+ nigc = 1.0
+ aigsd = 0.43
+ bigsd = 0.054
+ cigsd = 0.075
+ dlcig = 0.0
+ poxedge = 1.0
+ pigcd = 1.0
+ ntox = 1.0
+ toxref = 1.175e-8
* Temperature Effects Parameters
+ kt1 = -0.57573
+ kt2 = -0.019032
+ at = 430000.0
+ ute = -1.3864
+ ua1 = 7.0656e-10
+ ub1 = -3.145e-18
+ uc1 = -1.092e-10
+ kt1l = 0.0
+ prt = 0.0
* BSIM4 - High Speed RF Model Parameters
+ xrcrg1 = 12.0
+ xrcrg2 = 1.0
+ rbpb = 50.0
+ rbpd = 50.0
+ rbps = 50.0
+ rbdb = 50.0
+ rbsb = 50.0
+ gbmin = 1.0e-12
* BSIM4 - Flicker and Thermal Noise Parameters
+ noia = 3.0000000e+40
+ noib = 8.5300000e+24
+ noic = 8.4000000e+7
+ em = 4.1000000e+7
+ af = 1.0
+ ef = 0.88
+ kf = 0.0
+ ntnoi = 1.0
* BSIM4 - Layout Dependent Parasitic Model Parameters
+ dmcg = 0.0
+ dmcgt = 0.0
+ dmdg = 0.0
+ xgw = 0.0
+ xgl = 0.0
+ ngcon = 1.0
* Diode DC IV Parameters
* BSIM4 - Diode DC IV parameters
+ diomod = 1.0
+ njs = 1.3632
+ jss = 2.1483e-5
+ jsws = 4.02e-12
+ xtis = 10.0
+ bvs = 12.69
+ xjbvs = 1.0
+ ijthsrev = 0.1
+ ijthsfwd = 0.1
* Diode and FET Capacitance Parameters
+ tpb = 0.001671
+ tpbsw = 0.0
+ tpbswg = 0.0
+ tcj = 0.00096
+ tcjsw = 3.0e-5
+ tcjswg = 0.0
+ cgdo = 1.52493723e-10
+ cgso = 1.52493723e-10
+ cgbo = 0.0
+ capmod = 2.0
+ xpart = 0.0
+ cgsl = 7.7168565e-12
+ cgdl = 7.7168565e-12
+ cf = 1.2e-11
+ clc = 1.0e-7
+ cle = 0.6
+ dlc = 5.71105e-8
+ dwc = -2.252e-8
+ vfbcv = -0.1446893
+ acde = 0.401
+ moin = 15.773
+ noff = 4.0
+ voffcv = 0.0
+ ngate = 1.0e+23
+ lwc = 0.0
+ llc = 0.0
+ lwlc = 0.0
+ wlc = 0.0
+ wwc = 0.0
+ wwlc = 0.0
* BSIM4 - FET and Diode capacitance parameters
+ ckappas = 0.6
+ cjs = 0.0007398371535
+ mjs = 0.33956
+ pbs = 0.6587
+ cjsws = 9.513752158e-11
+ mjsws = 0.24676
+ pbsws = 1.0
+ cjswgs = 1.4070604e-10
+ mjswgs = 0.81
+ pbswgs = 3.0
* Stress Parameters
+ saref = 3.0e-6
+ sbref = 3.0e-6
+ wlod = {0+sky130_fd_pr__pfet_g5v0d10v5__wlod_diff}
+ kvth0 = {0+sky130_fd_pr__pfet_g5v0d10v5__kvth0_diff}
+ lkvth0 = {0+sky130_fd_pr__pfet_g5v0d10v5__lkvth0_diff}
+ wkvth0 = {0+sky130_fd_pr__pfet_g5v0d10v5__wkvth0_diff}
+ pkvth0 = 0.0
+ llodvth = 0.0
+ wlodvth = 1.0
+ stk2 = 0.0
+ lodk2 = 1.0
+ lodeta0 = 1.0
+ ku0 = {0+sky130_fd_pr__pfet_g5v0d10v5__ku0_diff}
+ lku0 = {0+sky130_fd_pr__pfet_g5v0d10v5__lku0_diff}
+ wku0 = {0+sky130_fd_pr__pfet_g5v0d10v5__wku0_diff}
+ pku0 = 0.0
+ llodku0 = 0.0
+ wlodku0 = 1.0
+ kvsat = {0+sky130_fd_pr__pfet_g5v0d10v5__kvsat_diff}
+ steta0 = 0.0
+ tku0 = 0.0
.model sky130_fd_pr__pfet_g5v0d10v5__model.1 pmos
* DC IV MOS Parameters
+ lmin = 8e-06 lmax = 2.0e-05 wmin = 2.0e-05 wmax = 1.0e-4
+ level = 54.0
+ tnom = 30.0
+ version = 4.5
+ toxm = 1.175e-8
+ xj = 1.5e-7
+ lln = 1.0
+ lwn = 1.0
+ wln = 1.0
+ wwn = 1.0
+ lint = 5.75025e-8
+ ll = 0.0
+ lw = 0.0
+ lwl = 0.0
+ wint = -1.0243e-8
+ wl = 0.0
+ ww = 0.0
+ wwl = 0.0
+ xl = 0.0
+ xw = 0.0
+ mobmod = 0.0
+ binunit = 2.0
+ dwg = -4.7338e-9
+ dwb = 0.0
* BSIM4 - Model Selectors
+ igcmod = 0.0
+ igbmod = 0.0
+ rgatemod = 0.0
+ rbodymod = 1.0
+ trnqsmod = 0.0
+ acnqsmod = 0.0
+ fnoimod = 1.0
+ tnoimod = 1.0
+ permod = 1.0
+ geomod = 0.0
+ rdsmod = 0.0
+ tempmod = 0.0
+ lintnoi = 0.0
+ vfbsdoff = 0.0
+ lambda = 0.0
+ vtl = 0.0
+ lc = 5.0e-9
+ xn = 3.0
+ rnoia = 0.577
+ rnoib = 0.37
+ tnoia = 1.5
+ tnoib = 3.5
* BSIM4 - Process Parameters
+ epsrox = 3.9
+ toxe = {1.12565e-08+sky130_fd_pr__pfet_g5v0d10v5__toxe_slope_spectre*(1.12565e-08*(sky130_fd_pr__pfet_g5v0d10v5__toxe_slope/sqrt(l*w*mult)))}
+ dtox = 0.0
+ ndep = 1.7000000000000000e+17
+ nsd = 1.0e+20
+ rshg = 0.1
+ rsh = 1.0
* Threshold Voltage Parameters
+ vth0 = {-0.979018+sky130_fd_pr__pfet_g5v0d10v5__vth0_slope_spectre*(sky130_fd_pr__pfet_g5v0d10v5__vth0_slope/sqrt(l*w*mult))}
+ k1 = 0.59521
+ k2 = 0.0218501
+ k3 = -2.2405
+ dvt0 = 4.657
+ dvt1 = 0.34864
+ dvt2 = -0.030206
+ dvt0w = -2.2
+ dvt1w = 1016300.0
+ dvt2w = 0.0
+ w0 = 0.0
+ k3b = -0.172
* NEW BSIM4 Parameters for Level 54
+ phin = 0.0
+ lpe0 = 0.0
+ lpeb = 0.0
+ vbm = -3.0
+ dvtp0 = 0.0
+ dvtp1 = 0.0
* Mobility Parameters
+ vsat = 200000.0
+ ua = 2.70482362e-9
+ ub = -1.668e-20
+ uc = -3.9972e-11
+ rdsw = 788.47
+ prwb = 0.053538
+ prwg = 0.0
+ wr = 1.0
+ u0 = 0.0213783
+ a0 = 0.8929174
+ keta = -0.0079259
+ a1 = 0.0
+ a2 = 0.5
+ ags = 0.145547
+ b0 = 0.0
+ b1 = 0.0
* BSIM4 - Mobility Parameters
+ eu = 1.67
+ rdswmin = 0.0
+ rdw = 0.0
+ rdwmin = 0.0
+ rsw = 0.0
+ rswmin = 0.0
* Subthreshold Current Parameters
+ voff = {-0.093204657+sky130_fd_pr__pfet_g5v0d10v5__voff_slope_spectre*(sky130_fd_pr__pfet_g5v0d10v5__voff_slope/sqrt(l*w*mult))}
+ nfactor = {1.76562+sky130_fd_pr__pfet_g5v0d10v5__nfactor_slope_spectre*(sky130_fd_pr__pfet_g5v0d10v5__nfactor_slope/sqrt(l*w*mult))}
+ up = 0.0
+ ud = 0.0
+ lp = 1.0
+ tvfbsdoff = 0.0
+ tvoff = 0.0
+ cit = 1.0e-5
+ cdsc = 0.0
+ cdscb = 0.0
+ cdscd = 0.0
+ eta0 = 0.0800000000000101
+ etab = -0.07
+ dsub = 0.56
* BSIM4 - Sub-threshold parameters
+ voffl = 0.0
+ minv = 0.0
* Rout Parameters
+ pclm = 0.08353125
+ pdiblc1 = 0.39
+ pdiblc2 = 0.0029407877
+ pdiblcb = -0.025
+ drout = 0.56
+ pscbe1 = 333712830.0
+ pscbe2 = 1.5000958e-8
+ pvag = 0.0
+ delta = 0.01
+ alpha0 = 5.0667189e-5
+ alpha1 = 0.0
+ beta0 = 38.266046
* BSIM4 - Rout Parameters
+ fprout = 0.0
+ pdits = 0.0
+ pditsl = 0.0
+ pditsd = 0.0
* BSIM4 - Gate Induced Drain Leakage Model Parameters
+ agidl = 7.3657e-9
+ bgidl = 1704700000.0
+ cgidl = 700.0
+ egidl = 0.69350825
* BSIM4 - Gate Leakage Current Parameters
+ aigbacc = 0.43
+ bigbacc = 0.054
+ cigbacc = 0.075
+ nigbacc = 1.0
+ aigbinv = 0.35
+ bigbinv = 0.03
+ cigbinv = 0.006
+ eigbinv = 1.1
+ nigbinv = 3.0
+ aigc = 0.43
+ bigc = 0.054
+ cigc = 0.075
+ nigc = 1.0
+ aigsd = 0.43
+ bigsd = 0.054
+ cigsd = 0.075
+ dlcig = 0.0
+ poxedge = 1.0
+ pigcd = 1.0
+ ntox = 1.0
+ toxref = 1.175e-8
* Temperature Effects Parameters
+ kt1 = -0.57573
+ kt2 = -0.019032
+ at = 430000.0
+ ute = -1.3864
+ ua1 = 7.0656e-10
+ ub1 = -3.145e-18
+ uc1 = -1.092e-10
+ kt1l = 0.0
+ prt = 0.0
* BSIM4 - High Speed RF Model Parameters
+ xrcrg1 = 12.0
+ xrcrg2 = 1.0
+ rbpb = 50.0
+ rbpd = 50.0
+ rbps = 50.0
+ rbdb = 50.0
+ rbsb = 50.0
+ gbmin = 1.0e-12
* BSIM4 - Flicker and Thermal Noise Parameters
+ noia = 3.0000000e+40
+ noib = 8.5300000e+24
+ noic = 8.4000000e+7
+ em = 4.1000000e+7
+ af = 1.0
+ ef = 0.88
+ kf = 0.0
+ ntnoi = 1.0
* BSIM4 - Layout Dependent Parasitic Model Parameters
+ dmcg = 0.0
+ dmcgt = 0.0
+ dmdg = 0.0
+ xgw = 0.0
+ xgl = 0.0
+ ngcon = 1.0
* Diode DC IV Parameters
* BSIM4 - Diode DC IV parameters
+ diomod = 1.0
+ njs = 1.3632
+ jss = 2.1483e-5
+ jsws = 4.02e-12
+ xtis = 10.0
+ bvs = 12.69
+ xjbvs = 1.0
+ ijthsrev = 0.1
+ ijthsfwd = 0.1
* Diode and FET Capacitance Parameters
+ tpb = 0.001671
+ tpbsw = 0.0
+ tpbswg = 0.0
+ tcj = 0.00096
+ tcjsw = 3.0e-5
+ tcjswg = 0.0
+ cgdo = 1.52493723e-10
+ cgso = 1.52493723e-10
+ cgbo = 0.0
+ capmod = 2.0
+ xpart = 0.0
+ cgsl = 7.7168565e-12
+ cgdl = 7.7168565e-12
+ cf = 1.2e-11
+ clc = 1.0e-7
+ cle = 0.6
+ dlc = 5.71105e-8
+ dwc = -2.252e-8
+ vfbcv = -0.1446893
+ acde = 0.401
+ moin = 15.773
+ noff = 4.0
+ voffcv = 0.0
+ ngate = 1.0e+23
+ lwc = 0.0
+ llc = 0.0
+ lwlc = 0.0
+ wlc = 0.0
+ wwc = 0.0
+ wwlc = 0.0
* BSIM4 - FET and Diode capacitance parameters
+ ckappas = 0.6
+ cjs = 0.0007398371535
+ mjs = 0.33956
+ pbs = 0.6587
+ cjsws = 9.513752158e-11
+ mjsws = 0.24676
+ pbsws = 1.0
+ cjswgs = 1.4070604e-10
+ mjswgs = 0.81
+ pbswgs = 3.0
* Stress Parameters
+ saref = 3.0e-6
+ sbref = 3.0e-6
+ wlod = {0+sky130_fd_pr__pfet_g5v0d10v5__wlod_diff}
+ kvth0 = {0+sky130_fd_pr__pfet_g5v0d10v5__kvth0_diff}
+ lkvth0 = {0+sky130_fd_pr__pfet_g5v0d10v5__lkvth0_diff}
+ wkvth0 = {0+sky130_fd_pr__pfet_g5v0d10v5__wkvth0_diff}
+ pkvth0 = 0.0
+ llodvth = 0.0
+ wlodvth = 1.0
+ stk2 = 0.0
+ lodk2 = 1.0
+ lodeta0 = 1.0
+ ku0 = {0+sky130_fd_pr__pfet_g5v0d10v5__ku0_diff}
+ lku0 = {0+sky130_fd_pr__pfet_g5v0d10v5__lku0_diff}
+ wku0 = {0+sky130_fd_pr__pfet_g5v0d10v5__wku0_diff}
+ pku0 = 0.0
+ llodku0 = 0.0
+ wlodku0 = 1.0
+ kvsat = {0+sky130_fd_pr__pfet_g5v0d10v5__kvsat_diff}
+ steta0 = 0.0
+ tku0 = 0.0
.model sky130_fd_pr__pfet_g5v0d10v5__model.2 pmos
* DC IV MOS Parameters
+ lmin = 4e-06 lmax = 8e-06 wmin = 2.0e-05 wmax = 1.0e-4
+ level = 54.0
+ tnom = 30.0
+ version = 4.5
+ toxm = 1.175e-8
+ xj = 1.5e-7
+ lln = 1.0
+ lwn = 1.0
+ wln = 1.0
+ wwn = 1.0
+ lint = 5.75025e-8
+ ll = 0.0
+ lw = 0.0
+ lwl = 0.0
+ wint = -1.0243e-8
+ wl = 0.0
+ ww = 0.0
+ wwl = 0.0
+ xl = 0.0
+ xw = 0.0
+ mobmod = 0.0
+ binunit = 2.0
+ dwg = -4.7338e-9
+ dwb = 0.0
* BSIM4 - Model Selectors
+ igcmod = 0.0
+ igbmod = 0.0
+ rgatemod = 0.0
+ rbodymod = 1.0
+ trnqsmod = 0.0
+ acnqsmod = 0.0
+ fnoimod = 1.0
+ tnoimod = 1.0
+ permod = 1.0
+ geomod = 0.0
+ rdsmod = 0.0
+ tempmod = 0.0
+ lintnoi = 0.0
+ vfbsdoff = 0.0
+ lambda = 0.0
+ vtl = 0.0
+ lc = 5.0e-9
+ xn = 3.0
+ rnoia = 0.577
+ rnoib = 0.37
+ tnoia = 1.5
+ tnoib = 3.5
* BSIM4 - Process Parameters
+ epsrox = 3.9
+ toxe = {1.12565e-08+sky130_fd_pr__pfet_g5v0d10v5__toxe_slope_spectre*(1.12565e-08*(sky130_fd_pr__pfet_g5v0d10v5__toxe_slope/sqrt(l*w*mult)))}
+ dtox = 0.0
+ ndep = 1.7000000000000000e+17
+ nsd = 1.0e+20
+ rshg = 0.1
+ rsh = 1.0
* Threshold Voltage Parameters
+ vth0 = {-0.98502420227+sky130_fd_pr__pfet_g5v0d10v5__vth0_slope_spectre*(sky130_fd_pr__pfet_g5v0d10v5__vth0_slope/sqrt(l*w*mult))} lvth0 = 4.7358874867938e-8
+ k1 = 0.6040969260625 lk1 = -7.0073367568183e-8
+ k2 = 0.019548143337625 lk2 = 1.81509167730436e-8
+ k3 = -2.2405
+ dvt0 = 4.657
+ dvt1 = 0.34864
+ dvt2 = -0.030206
+ dvt0w = -2.2
+ dvt1w = 1016300.0
+ dvt2w = 0.0
+ w0 = 0.0
+ k3b = -0.172
* NEW BSIM4 Parameters for Level 54
+ phin = 0.0
+ lpe0 = 0.0
+ lpeb = 0.0
+ vbm = -3.0
+ dvtp0 = 0.0
+ dvtp1 = 0.0
* Mobility Parameters
+ vsat = 297115.1625125 lvsat = -0.76575257083525
+ ua = 2.45140613429905e-09 lua = 1.99819560766456e-15
+ ub = 2.39982194675e-19 lub = -2.0237801217014e-24 wub = -9.18354961579912e-41 pub = -3.50324616081204e-45
+ uc = -5.150363640875e-11 luc = 9.09268954248118e-17
+ rdsw = 788.47
+ prwb = 0.053538
+ prwg = 0.0
+ wr = 1.0
+ u0 = 0.02071299460625 lu0 = 5.2459297031918e-9
+ a0 = 0.912995345534625 la0 = -1.58314500150792e-7
+ keta = -0.004975149172625 lketa = -2.32666555200977e-8
+ a1 = 0.0
+ a2 = 0.5
+ ags = 0.1193446512225 lags = 2.06605389098844e-7
+ b0 = 0.0
+ b1 = 0.0
* BSIM4 - Mobility Parameters
+ eu = 1.67
+ rdswmin = 0.0
+ rdw = 0.0
+ rdwmin = 0.0
+ rsw = 0.0
+ rswmin = 0.0
* Subthreshold Current Parameters
+ voff = {-0.0947667260771125+sky130_fd_pr__pfet_g5v0d10v5__voff_slope_spectre*(sky130_fd_pr__pfet_g5v0d10v5__voff_slope/sqrt(l*w*mult))} lvoff = 1.23169068626866e-8
+ nfactor = {1.7731568903+sky130_fd_pr__pfet_g5v0d10v5__nfactor_slope_spectre*(sky130_fd_pr__pfet_g5v0d10v5__nfactor_slope/sqrt(l*w*mult))} lnfactor = -5.94283423310471e-8
+ up = 0.0
+ ud = 0.0
+ lp = 1.0
+ tvfbsdoff = 0.0
+ tvoff = 0.0
+ cit = 1.0e-5
+ cdsc = 0.0
+ cdscb = 0.0
+ cdscd = 0.0
+ eta0 = 0.0800000000000101
+ etab = -0.07
+ dsub = 0.56
* BSIM4 - Sub-threshold parameters
+ voffl = 0.0
+ minv = 0.0
* Rout Parameters
+ pclm = -0.643778489125225 lpclm = 5.7348336564537e-06 wpclm = -1.6940658945086e-21 ppclm = 6.46234853557053e-27
+ pdiblc1 = 0.39
+ pdiblc2 = 0.00454411319014038 lpdiblc2 = -1.26422134731294e-8
+ pdiblcb = -0.025
+ drout = 0.56
+ pscbe1 = 560706123.996462 lpscbe1 = -1789.84098819564
+ pscbe2 = -1.51292780647975e-08 lpscbe2 = 2.37576760719748e-13
+ pvag = 0.0
+ delta = 0.01
+ alpha0 = 7.7982685969875e-05 lalpha0 = -2.1538255702998e-10
+ alpha1 = 0.0
+ beta0 = 39.1348639430788 lbeta0 = -6.85062513708622e-06 wbeta0 = 2.16840434497101e-19
* BSIM4 - Rout Parameters
+ fprout = 0.0
+ pdits = 0.0
+ pditsl = 0.0
+ pditsd = 0.0
* BSIM4 - Gate Induced Drain Leakage Model Parameters
+ agidl = 6.543926432625e-09 lagidl = 6.47968046988403e-15
+ bgidl = 1479758789.5 lbgidl = 1773.66032008645
+ cgidl = 931.1572025 lcgidl = -0.00182267338592649
+ egidl = 1.20611845100666 legidl = -4.04192887188653e-6
* BSIM4 - Gate Leakage Current Parameters
+ aigbacc = 0.43
+ bigbacc = 0.054
+ cigbacc = 0.075
+ nigbacc = 1.0
+ aigbinv = 0.35
+ bigbinv = 0.03
+ cigbinv = 0.006
+ eigbinv = 1.1
+ nigbinv = 3.0
+ aigc = 0.43
+ bigc = 0.054
+ cigc = 0.075
+ nigc = 1.0
+ aigsd = 0.43
+ bigsd = 0.054
+ cigsd = 0.075
+ dlcig = 0.0
+ poxedge = 1.0
+ pigcd = 1.0
+ ntox = 1.0
+ toxref = 1.175e-8
* Temperature Effects Parameters
+ kt1 = -0.5851802503375 lkt1 = 7.45151766599359e-8
+ kt2 = -0.019032
+ at = 671539.8516375 lat = -1.90454052246243
+ ute = -1.221579087125 lute = -1.29961207391481e-6
+ ua1 = 1.37134480442e-09 lua1 = -5.24182485892768e-15
+ ub1 = -2.61372693375e-18 lub1 = -4.18908547101592e-24
+ uc1 = -1.092e-10
+ kt1l = 0.0
+ prt = 0.0
* BSIM4 - High Speed RF Model Parameters
+ xrcrg1 = 12.0
+ xrcrg2 = 1.0
+ rbpb = 50.0
+ rbpd = 50.0
+ rbps = 50.0
+ rbdb = 50.0
+ rbsb = 50.0
+ gbmin = 1.0e-12
* BSIM4 - Flicker and Thermal Noise Parameters
+ noia = 3.0000000e+40
+ noib = 8.5300000e+24
+ noic = 8.4000000e+7
+ em = 4.1000000e+7
+ af = 1.0
+ ef = 0.88
+ kf = 0.0
+ ntnoi = 1.0
* BSIM4 - Layout Dependent Parasitic Model Parameters
+ dmcg = 0.0
+ dmcgt = 0.0
+ dmdg = 0.0
+ xgw = 0.0
+ xgl = 0.0
+ ngcon = 1.0
* Diode DC IV Parameters
* BSIM4 - Diode DC IV parameters
+ diomod = 1.0
+ njs = 1.3632
+ jss = 2.1483e-5
+ jsws = 4.02e-12
+ xtis = 10.0
+ bvs = 12.69
+ xjbvs = 1.0
+ ijthsrev = 0.1
+ ijthsfwd = 0.1
* Diode and FET Capacitance Parameters
+ tpb = 0.001671
+ tpbsw = 0.0
+ tpbswg = 0.0
+ tcj = 0.00096
+ tcjsw = 3.0e-5
+ tcjswg = 0.0
+ cgdo = 1.52493723e-10
+ cgso = 1.52493723e-10
+ cgbo = 0.0
+ capmod = 2.0
+ xpart = 0.0
+ cgsl = 7.7168565e-12
+ cgdl = 7.7168565e-12
+ cf = 1.2e-11
+ clc = 1.0e-7
+ cle = 0.6
+ dlc = 5.71105e-8
+ dwc = -2.252e-8
+ vfbcv = -0.1446893
+ acde = 0.401
+ moin = 15.773
+ noff = 4.0
+ voffcv = 0.0
+ ngate = 1.0e+23
+ lwc = 0.0
+ llc = 0.0
+ lwlc = 0.0
+ wlc = 0.0
+ wwc = 0.0
+ wwlc = 0.0
* BSIM4 - FET and Diode capacitance parameters
+ ckappas = 0.6
+ cjs = 0.0007398371535
+ mjs = 0.33956
+ pbs = 0.6587
+ cjsws = 9.513752158e-11
+ mjsws = 0.24676
+ pbsws = 1.0
+ cjswgs = 1.4070604e-10
+ mjswgs = 0.81
+ pbswgs = 3.0
* Stress Parameters
+ saref = 3.0e-6
+ sbref = 3.0e-6
+ wlod = {0+sky130_fd_pr__pfet_g5v0d10v5__wlod_diff}
+ kvth0 = {0+sky130_fd_pr__pfet_g5v0d10v5__kvth0_diff}
+ lkvth0 = {0+sky130_fd_pr__pfet_g5v0d10v5__lkvth0_diff}
+ wkvth0 = {0+sky130_fd_pr__pfet_g5v0d10v5__wkvth0_diff}
+ pkvth0 = 0.0
+ llodvth = 0.0
+ wlodvth = 1.0
+ stk2 = 0.0
+ lodk2 = 1.0
+ lodeta0 = 1.0
+ ku0 = {0+sky130_fd_pr__pfet_g5v0d10v5__ku0_diff}
+ lku0 = {0+sky130_fd_pr__pfet_g5v0d10v5__lku0_diff}
+ wku0 = {0+sky130_fd_pr__pfet_g5v0d10v5__wku0_diff}
+ pku0 = 0.0
+ llodku0 = 0.0
+ wlodku0 = 1.0
+ kvsat = {0+sky130_fd_pr__pfet_g5v0d10v5__kvsat_diff}
+ steta0 = 0.0
+ tku0 = 0.0
.model sky130_fd_pr__pfet_g5v0d10v5__model.3 pmos
* DC IV MOS Parameters
+ lmin = 2e-06 lmax = 4e-06 wmin = 2.0e-05 wmax = 1.0e-4
+ level = 54.0
+ tnom = 30.0
+ version = 4.5
+ toxm = 1.175e-8
+ xj = 1.5e-7
+ lln = 1.0
+ lwn = 1.0
+ wln = 1.0
+ wwn = 1.0
+ lint = 5.75025e-8
+ ll = 0.0
+ lw = 0.0
+ lwl = 0.0
+ wint = -1.0243e-8
+ wl = 0.0
+ ww = 0.0
+ wwl = 0.0
+ xl = 0.0
+ xw = 0.0
+ mobmod = 0.0
+ binunit = 2.0
+ dwg = -4.7338e-9
+ dwb = 0.0
* BSIM4 - Model Selectors
+ igcmod = 0.0
+ igbmod = 0.0
+ rgatemod = 0.0
+ rbodymod = 1.0
+ trnqsmod = 0.0
+ acnqsmod = 0.0
+ fnoimod = 1.0
+ tnoimod = 1.0
+ permod = 1.0
+ geomod = 0.0
+ rdsmod = 0.0
+ tempmod = 0.0
+ lintnoi = 0.0
+ vfbsdoff = 0.0
+ lambda = 0.0
+ vtl = 0.0
+ lc = 5.0e-9
+ xn = 3.0
+ rnoia = 0.577
+ rnoib = 0.37
+ tnoia = 1.5
+ tnoib = 3.5
* BSIM4 - Process Parameters
+ epsrox = 3.9
+ toxe = {1.12565e-08+sky130_fd_pr__pfet_g5v0d10v5__toxe_slope_spectre*(1.12565e-08*(sky130_fd_pr__pfet_g5v0d10v5__toxe_slope/sqrt(l*w*mult)))}
+ dtox = 0.0
+ ndep = 1.7000000000000000e+17
+ nsd = 1.0e+20
+ rshg = 0.1
+ rsh = 1.0
* Threshold Voltage Parameters
+ vth0 = {-0.9582756181165+sky130_fd_pr__pfet_g5v0d10v5__vth0_slope_spectre*(sky130_fd_pr__pfet_g5v0d10v5__vth0_slope/sqrt(l*w*mult))} lvth0 = -5.65592408254869e-8
+ k1 = 0.6023840567 lk1 = -6.34188786592167e-8
+ k2 = 0.02423914419975 lk2 = -7.35981213077727e-11
+ k3 = -2.2405
+ dvt0 = 4.657
+ dvt1 = 0.34864
+ dvt2 = -0.030206
+ dvt0w = -2.2
+ dvt1w = 1016300.0
+ dvt2w = 0.0
+ w0 = 0.0
+ k3b = -0.172
* NEW BSIM4 Parameters for Level 54
+ phin = 0.0
+ lpe0 = 0.0
+ lpeb = 0.0
+ vbm = -3.0
+ dvtp0 = 0.0
+ dvtp1 = 0.0
* Mobility Parameters
+ vsat = 84741.5405 lvsat = 0.0593178888152026
+ ua = 3.31429591882863e-09 lua = -1.35412689078391e-15
+ ub = -1.22040265805e-18 lub = 3.64980772921096e-24 wub = -2.93873587705572e-39
+ uc = -5.45822372525e-11 luc = 1.02887244309776e-16
+ rdsw = 788.47
+ prwb = 0.053538
+ prwg = 0.0
+ wr = 1.0
+ u0 = 0.0211909620139 lu0 = 3.38902871430858e-9
+ a0 = 0.82381514871175 la0 = 1.88150118605095e-7
+ keta = -0.00516198539 lketa = -2.2540797749777e-8
+ a1 = 0.0
+ a2 = 0.5
+ ags = 0.1427222865525 lags = 1.1578339272997e-7
+ b0 = 0.0
+ b1 = 0.0
* BSIM4 - Mobility Parameters
+ eu = 1.67
+ rdswmin = 0.0
+ rdw = 0.0
+ rdwmin = 0.0
+ rsw = 0.0
+ rswmin = 0.0
* Subthreshold Current Parameters
+ voff = {-0.0644364973897325+sky130_fd_pr__pfet_g5v0d10v5__voff_slope_spectre*(sky130_fd_pr__pfet_g5v0d10v5__voff_slope/sqrt(l*w*mult))} lvoff = -1.05515879936641e-7
+ nfactor = {2.19899029989+sky130_fd_pr__pfet_g5v0d10v5__nfactor_slope_spectre*(sky130_fd_pr__pfet_g5v0d10v5__nfactor_slope/sqrt(l*w*mult))} lnfactor = -1.71378900942115e-6
+ up = 0.0
+ ud = 0.0
+ lp = 1.0
+ tvfbsdoff = 0.0
+ tvoff = 0.0
+ cit = 1.0e-5
+ cdsc = 0.0
+ cdscb = 0.0
+ cdscd = 0.0
+ eta0 = 0.0198686595000102 leta0 = 2.33609957185798e-7
+ etab = -0.12173557277 letab = 2.00992441533586e-7
+ dsub = 0.811505457875 ldsub = -9.77097446317086e-7
* BSIM4 - Sub-threshold parameters
+ voffl = 0.0
+ minv = 0.0
* Rout Parameters
+ pclm = 1.04601663892438 lpclm = -8.30011967043352e-7
+ pdiblc1 = 0.5791285228315 lpdiblc1 = -7.34763365557763e-7
+ pdiblc2 = -0.00110255629368 lpdiblc2 = 9.29506923816533e-09 ppdiblc2 = -2.52435489670724e-29
+ pdiblcb = 0.1634995 lpdiblcb = -7.323196150025e-07 wpdiblcb = 4.2351647362715e-22 ppdiblcb = -1.21169035041947e-27
+ drout = 0.1453011 ldrout = 1.6111031530055e-6
+ pscbe1 = -152915980.78355 lpscbe1 = 982.577320764188
+ pscbe2 = 7.56929177375625e-08 lpscbe2 = -1.15267015861442e-13
+ pvag = 0.0
+ delta = 0.01
+ alpha0 = 4.37897997750275e-05 lalpha0 = -8.2543365127428e-11
+ alpha1 = -9.424975e-11 lalpha1 = 3.6615980750125e-16
+ beta0 = 69.7665703037275 lbeta0 = -0.000125854651189675
* BSIM4 - Rout Parameters
+ fprout = 0.0
+ pdits = 0.0
+ pditsl = 0.0
+ pditsd = 0.0
* BSIM4 - Gate Induced Drain Leakage Model Parameters
+ agidl = 9.1846459195e-09 lagidl = -3.7795015330279e-15
+ bgidl = 2611316709.5 lbgidl = -2622.43654132395
+ cgidl = 455.826641375 lcgidl = 2.39834673913318e-5
+ egidl = -1.56307736015895 legidl = 6.71638300851282e-06 wegidl = 3.3881317890172e-21 pegidl = 6.46234853557053e-27
* BSIM4 - Gate Leakage Current Parameters
+ aigbacc = 0.43
+ bigbacc = 0.054
+ cigbacc = 0.075
+ nigbacc = 1.0
+ aigbinv = 0.35
+ bigbinv = 0.03
+ cigbinv = 0.006
+ eigbinv = 1.1
+ nigbinv = 3.0
+ aigc = 0.43
+ bigc = 0.054
+ cigc = 0.075
+ nigc = 1.0
+ aigsd = 0.43
+ bigsd = 0.054
+ cigsd = 0.075
+ dlcig = 0.0
+ poxedge = 1.0
+ pigcd = 1.0
+ ntox = 1.0
+ toxref = 1.175e-8
* Temperature Effects Parameters
+ kt1 = -0.5669424975 lkt1 = 3.6615980750127e-9
+ kt2 = -0.019032
+ at = 210065.598725 lat = -0.111715357268631
+ ute = -1.70322385975 lute = 5.71575459509452e-7
+ ua1 = -4.7771419424e-10 lua1 = 1.94176010557143e-15 wua1 = 7.88860905221012e-31 pua1 = 1.50463276905253e-36
+ ub1 = -3.71961517675e-18 lub1 = 1.07284823597865e-25
+ uc1 = -1.092e-10
+ kt1l = 0.0
+ prt = 0.0
* BSIM4 - High Speed RF Model Parameters
+ xrcrg1 = 12.0
+ xrcrg2 = 1.0
+ rbpb = 50.0
+ rbpd = 50.0
+ rbps = 50.0
+ rbdb = 50.0
+ rbsb = 50.0
+ gbmin = 1.0e-12
* BSIM4 - Flicker and Thermal Noise Parameters
+ noia = 3.0000000e+40
+ noib = 8.5300000e+24
+ noic = 8.4000000e+7
+ em = 4.1000000e+7
+ af = 1.0
+ ef = 0.88
+ kf = 0.0
+ ntnoi = 1.0
* BSIM4 - Layout Dependent Parasitic Model Parameters
+ dmcg = 0.0
+ dmcgt = 0.0
+ dmdg = 0.0
+ xgw = 0.0
+ xgl = 0.0
+ ngcon = 1.0
* Diode DC IV Parameters
* BSIM4 - Diode DC IV parameters
+ diomod = 1.0
+ njs = 1.3632
+ jss = 2.1483e-5
+ jsws = 4.02e-12
+ xtis = 10.0
+ bvs = 12.69
+ xjbvs = 1.0
+ ijthsrev = 0.1
+ ijthsfwd = 0.1
* Diode and FET Capacitance Parameters
+ tpb = 0.001671
+ tpbsw = 0.0
+ tpbswg = 0.0
+ tcj = 0.00096
+ tcjsw = 3.0e-5
+ tcjswg = 0.0
+ cgdo = 1.52493723e-10
+ cgso = 1.52493723e-10
+ cgbo = 0.0
+ capmod = 2.0
+ xpart = 0.0
+ cgsl = 7.7168565e-12
+ cgdl = 7.7168565e-12
+ cf = 1.2e-11
+ clc = 1.0e-7
+ cle = 0.6
+ dlc = 5.71105e-8
+ dwc = -2.252e-8
+ vfbcv = -0.1446893
+ acde = 0.401
+ moin = 15.773
+ noff = 4.0
+ voffcv = 0.0
+ ngate = 1.0e+23
+ lwc = 0.0
+ llc = 0.0
+ lwlc = 0.0
+ wlc = 0.0
+ wwc = 0.0
+ wwlc = 0.0
* BSIM4 - FET and Diode capacitance parameters
+ ckappas = 0.6
+ cjs = 0.0007398371535
+ mjs = 0.33956
+ pbs = 0.6587
+ cjsws = 9.513752158e-11
+ mjsws = 0.24676
+ pbsws = 1.0
+ cjswgs = 1.4070604e-10
+ mjswgs = 0.81
+ pbswgs = 3.0
* Stress Parameters
+ saref = 3.0e-6
+ sbref = 3.0e-6
+ wlod = {0+sky130_fd_pr__pfet_g5v0d10v5__wlod_diff}
+ kvth0 = {0+sky130_fd_pr__pfet_g5v0d10v5__kvth0_diff}
+ lkvth0 = {0+sky130_fd_pr__pfet_g5v0d10v5__lkvth0_diff}
+ wkvth0 = {0+sky130_fd_pr__pfet_g5v0d10v5__wkvth0_diff}
+ pkvth0 = 0.0
+ llodvth = 0.0
+ wlodvth = 1.0
+ stk2 = 0.0
+ lodk2 = 1.0
+ lodeta0 = 1.0
+ ku0 = {0+sky130_fd_pr__pfet_g5v0d10v5__ku0_diff}
+ lku0 = {0+sky130_fd_pr__pfet_g5v0d10v5__lku0_diff}
+ wku0 = {0+sky130_fd_pr__pfet_g5v0d10v5__wku0_diff}
+ pku0 = 0.0
+ llodku0 = 0.0
+ wlodku0 = 1.0
+ kvsat = {0+sky130_fd_pr__pfet_g5v0d10v5__kvsat_diff}
+ steta0 = 0.0
+ tku0 = 0.0
.model sky130_fd_pr__pfet_g5v0d10v5__model.4 pmos
* DC IV MOS Parameters
+ lmin = 1e-06 lmax = 2e-06 wmin = 2.0e-05 wmax = 1.0e-4
+ level = 54.0
+ tnom = 30.0
+ version = 4.5
+ toxm = 1.175e-8
+ xj = 1.5e-7
+ lln = 1.0
+ lwn = 1.0
+ wln = 1.0
+ wwn = 1.0
+ lint = 5.75025e-8
+ ll = 0.0
+ lw = 0.0
+ lwl = 0.0
+ wint = -1.0243e-8
+ wl = 0.0
+ ww = 0.0
+ wwl = 0.0
+ xl = 0.0
+ xw = 0.0
+ mobmod = 0.0
+ binunit = 2.0
+ dwg = -4.7338e-9
+ dwb = 0.0
* BSIM4 - Model Selectors
+ igcmod = 0.0
+ igbmod = 0.0
+ rgatemod = 0.0
+ rbodymod = 1.0
+ trnqsmod = 0.0
+ acnqsmod = 0.0
+ fnoimod = 1.0
+ tnoimod = 1.0
+ permod = 1.0
+ geomod = 0.0
+ rdsmod = 0.0
+ tempmod = 0.0
+ lintnoi = 0.0
+ vfbsdoff = 0.0
+ lambda = 0.0
+ vtl = 0.0
+ lc = 5.0e-9
+ xn = 3.0
+ rnoia = 0.577
+ rnoib = 0.37
+ tnoia = 1.5
+ tnoib = 3.5
* BSIM4 - Process Parameters
+ epsrox = 3.9
+ toxe = {1.12565e-08+sky130_fd_pr__pfet_g5v0d10v5__toxe_slope_spectre*(1.12565e-08*(sky130_fd_pr__pfet_g5v0d10v5__toxe_slope/sqrt(l*w*mult)))}
+ dtox = 0.0
+ ndep = 1.7000000000000000e+17
+ nsd = 1.0e+20
+ rshg = 0.1
+ rsh = 1.0
* Threshold Voltage Parameters
+ vth0 = {-1.0103795446465+sky130_fd_pr__pfet_g5v0d10v5__vth0_slope_spectre*(sky130_fd_pr__pfet_g5v0d10v5__vth0_slope/sqrt(l*w*mult))} lvth0 = 4.1656400163929e-8
+ k1 = 0.55931480325 lk1 = 1.77664487477661e-8
+ k2 = 0.0189737620275 lk2 = 9.85162094647264e-9
+ k3 = -2.2405
+ dvt0 = 4.657
+ dvt1 = 0.34864
+ dvt2 = -0.030206
+ dvt0w = -2.2
+ dvt1w = 1016300.0
+ dvt2w = 0.0
+ w0 = 0.0
+ k3b = -0.172
* NEW BSIM4 Parameters for Level 54
+ phin = 0.0
+ lpe0 = 0.0
+ lpeb = 0.0
+ vbm = -3.0
+ dvtp0 = 0.0
+ dvtp1 = 0.0
* Mobility Parameters
+ vsat = 176673.743395 lvsat = -0.113973853980858
+ ua = 3.433765183409e-09 lua = -1.5793258571716e-15
+ ub = 6.855908709e-19 lub = 5.70194571078546e-26
+ uc = 5.181291727e-13 luc = -9.76670899893637e-19
+ rdsw = 788.47
+ prwb = 0.053538
+ prwg = 0.0
+ wr = 1.0
+ u0 = 0.0261944534892 lu0 = -6.04252769917455e-9
+ a0 = 0.9866834812625 la0 = -1.18855873911406e-7
+ keta = 0.04266318224 lketa = -1.12690999606489e-07 pketa = 1.0097419586829e-28
+ a1 = 0.0
+ a2 = 0.5
+ ags = -0.3008568383605 lags = 9.51927825295351e-7
+ b0 = 0.0
+ b1 = 0.0
* BSIM4 - Mobility Parameters
+ eu = 1.67
+ rdswmin = 0.0
+ rdw = 0.0
+ rdwmin = 0.0
+ rsw = 0.0
+ rswmin = 0.0
* Subthreshold Current Parameters
+ voff = {-0.158164876157715+sky130_fd_pr__pfet_g5v0d10v5__voff_slope_spectre*(sky130_fd_pr__pfet_g5v0d10v5__voff_slope/sqrt(l*w*mult))} lvoff = 7.1161645399112e-8
+ nfactor = {1.03928807542+sky130_fd_pr__pfet_g5v0d10v5__nfactor_slope_spectre*(sky130_fd_pr__pfet_g5v0d10v5__nfactor_slope/sqrt(l*w*mult))} lnfactor = 4.72243885193677e-7
+ up = 0.0
+ ud = 0.0
+ lp = 1.0
+ tvfbsdoff = 0.0
+ tvoff = 0.0
+ cit = 1.4424975e-05 lcit = -8.341055750125e-12
+ cdsc = 0.0
+ cdscb = 0.0
+ cdscd = 0.0
+ eta0 = 0.271036933858215 leta0 = -2.39840984138047e-7
+ etab = -0.02847850446 letab = 2.52033340545777e-8
+ dsub = 0.0710074050500002 ldsub = 4.18737680767775e-7
* BSIM4 - Sub-threshold parameters
+ voffl = 0.0
+ minv = 0.0
* Rout Parameters
+ pclm = 0.0769866827459003 lpclm = 9.96604655203293e-7
+ pdiblc1 = 0.0033121379690001 lpdiblc1 = 3.50647640826125e-7
+ pdiblc2 = 0.0058837902087835 lpdiblc2 = -3.87415898724585e-9
+ pdiblcb = -0.401999 lpdiblcb = 3.33642230005e-7
+ drout = 1.52153692559705 ldrout = -9.83094497065811e-7
+ pscbe1 = 429292893.4686 lpscbe1 = -114.883496156744
+ pscbe2 = 1.453303481712e-08 lpscbe2 = 1.9057644177885e-17
+ pvag = 0.0
+ delta = 0.01