* Copyright 2020 The SkyWater PDK Authors
*
* Licensed under the Apache License, Version 2.0 (the "License");
* you may not use this file except in compliance with the License.
* You may obtain a copy of the License at
*
*     https://www.apache.org/licenses/LICENSE-2.0
*
* Unless required by applicable law or agreed to in writing, software
* distributed under the License is distributed on an "AS IS" BASIS,
* WITHOUT WARRANTIES OR CONDITIONS OF ANY KIND, either express or implied.
* See the License for the specific language governing permissions and
* limitations under the License.

* SKY130 Spice File.
.param sky130_fd_pr__pfet_g5v0d10v5__toxe_slope_spectre = 0.0
.param sky130_fd_pr__pfet_g5v0d10v5__vth0_slope_spectre = 0.0
.param sky130_fd_pr__pfet_g5v0d10v5__voff_slope_spectre = 0.0
.param sky130_fd_pr__pfet_g5v0d10v5__nfactor_slope_spectre = 0.0
* statistics {
*   process {
*   }
*   mismatch {
*     vary sky130_fd_pr__pfet_g5v0d10v5__toxe_slope_spectre dist=gauss std = 1.0
*     vary sky130_fd_pr__pfet_g5v0d10v5__vth0_slope_spectre dist=gauss std = 1.0
*     vary sky130_fd_pr__pfet_g5v0d10v5__voff_slope_spectre dist=gauss std = 1.0
*     vary sky130_fd_pr__pfet_g5v0d10v5__nfactor_slope_spectre dist=gauss std = 1.0
*   }
* }
.subckt  sky130_fd_pr__pfet_g5v0d10v5 d g s b
+ 
.param  l = 1 w = 1 ad = 0 as = 0 pd = 0 ps = 0 nrd = 0 nrs = 0 sa = 0 sb = 0 sd = 0 mult = 1 nf = 1.0
msky130_fd_pr__pfet_g5v0d10v5 d g s b sky130_fd_pr__pfet_g5v0d10v5__model l = {l} w = {w} ad = {ad} as = {as} pd = {pd} ps = {ps} nrd = {nrd} nrs = {nrs} sa = {sa} sb = {sb} sd = {sd} nf = {nf}
.model sky130_fd_pr__pfet_g5v0d10v5__model.0 pmos
* DC IV MOS Parameters
+ lmin = 2.0e-05 lmax = 1.0e-04 wmin = 2.0e-05 wmax = 1.0e-4
+ level = 54.0
+ tnom = 30.0
+ version = 4.5
+ toxm = 1.175e-8
+ xj = 1.5e-7
+ lln = 1.0
+ lwn = 1.0
+ wln = 1.0
+ wwn = 1.0
+ lint = 2.805e-8
+ ll = 0.0
+ lw = 0.0
+ lwl = 0.0
+ wint = 4.4452e-8
+ wl = 0.0
+ ww = 0.0
+ wwl = 0.0
+ xl = 0.0
+ xw = 0.0
+ mobmod = 0.0
+ binunit = 2.0
+ dwg = -4.7338e-9
+ dwb = 0.0
* BSIM4 - Model Selectors
+ igcmod = 0.0
+ igbmod = 0.0
+ rgatemod = 0.0
+ rbodymod = 1.0
+ trnqsmod = 0.0
+ acnqsmod = 0.0
+ fnoimod = 1.0
+ tnoimod = 1.0
+ permod = 1.0
+ geomod = 0.0
+ rdsmod = 0.0
+ tempmod = 0.0
+ lintnoi = 0.0
+ vfbsdoff = 0.0
+ lambda = 0.0
+ vtl = 0.0
+ lc = 5.0e-9
+ xn = 3.0
+ rnoia = 0.577
+ rnoib = 0.37
+ tnoia = 1.5
+ tnoib = 3.5
* BSIM4 - Process Parameters
+ epsrox = 3.9
+ toxe = {1.2455e-08+sky130_fd_pr__pfet_g5v0d10v5__toxe_slope_spectre*(1.2455e-08*(sky130_fd_pr__pfet_g5v0d10v5__toxe_slope/sqrt(l*w*mult)))}
+ dtox = 0.0
+ ndep = 1.7000000000000000e+17
+ nsd = 1.0e+20
+ rshg = 0.1
+ rsh = 1.0
* Threshold Voltage Parameters
+ vth0 = {-1.057134+sky130_fd_pr__pfet_g5v0d10v5__vth0_slope_spectre*(sky130_fd_pr__pfet_g5v0d10v5__vth0_slope/sqrt(l*w*mult))}
+ k1 = 0.59521
+ k2 = 0.0294389
+ k3 = -2.2405
+ dvt0 = 4.657
+ dvt1 = 0.34864
+ dvt2 = -0.030206
+ dvt0w = -2.2
+ dvt1w = 1016300.0
+ dvt2w = 0.0
+ w0 = 0.0
+ k3b = -0.172
* NEW BSIM4 Parameters for Level 54
+ phin = 0.0
+ lpe0 = 0.0
+ lpeb = 0.0
+ vbm = -3.0
+ dvtp0 = 0.0
+ dvtp1 = 0.0
* Mobility Parameters
+ vsat = 200000.0
+ ua = 2.7344678e-9
+ ub = -4.4406e-19
+ uc = -3.9972e-11
+ rdsw = 788.47
+ prwb = 0.053538
+ prwg = 0.0
+ wr = 1.0
+ u0 = 0.0207994
+ a0 = 0.911307
+ keta = -0.0079259
+ a1 = 0.0
+ a2 = 0.5
+ ags = 0.1271299
+ b0 = 0.0
+ b1 = 0.0
* BSIM4 - Mobility Parameters
+ eu = 1.67
+ rdswmin = 0.0
+ rdw = 0.0
+ rdwmin = 0.0
+ rsw = 0.0
+ rswmin = 0.0
* Subthreshold Current Parameters
+ voff = {-0.093204657+sky130_fd_pr__pfet_g5v0d10v5__voff_slope_spectre*(sky130_fd_pr__pfet_g5v0d10v5__voff_slope/sqrt(l*w*mult))}
+ nfactor = {1.69967+sky130_fd_pr__pfet_g5v0d10v5__nfactor_slope_spectre*(sky130_fd_pr__pfet_g5v0d10v5__nfactor_slope/sqrt(l*w*mult))}
+ up = 0.0
+ ud = 0.0
+ lp = 1.0
+ tvfbsdoff = 0.0
+ tvoff = 0.0
+ cit = 1.0e-5
+ cdsc = 0.0
+ cdscb = 0.0
+ cdscd = 0.0
+ eta0 = 0.08
+ etab = -0.07
+ dsub = 0.56
* BSIM4 - Sub-threshold parameters
+ voffl = 0.0
+ minv = 0.0
* Rout Parameters
+ pclm = 0.08353125
+ pdiblc1 = 0.39
+ pdiblc2 = 0.0029407877
+ pdiblcb = -0.025
+ drout = 0.56
+ pscbe1 = 333712830.0
+ pscbe2 = 1.5000958e-8
+ pvag = 0.0
+ delta = 0.01
+ alpha0 = 5.0667189e-5
+ alpha1 = 0.0
+ beta0 = 38.266046
* BSIM4 - Rout Parameters
+ fprout = 0.0
+ pdits = 0.0
+ pditsl = 0.0
+ pditsd = 0.0
* BSIM4 - Gate Induced Drain Leakage Model Parameters
+ agidl = 7.3657e-9
+ bgidl = 1704700000.0
+ cgidl = 700.0
+ egidl = 0.69350825
* BSIM4 - Gate Leakage Current Parameters
+ aigbacc = 0.43
+ bigbacc = 0.054
+ cigbacc = 0.075
+ nigbacc = 1.0
+ aigbinv = 0.35
+ bigbinv = 0.03
+ cigbinv = 0.006
+ eigbinv = 1.1
+ nigbinv = 3.0
+ aigc = 0.43
+ bigc = 0.054
+ cigc = 0.075
+ nigc = 1.0
+ aigsd = 0.43
+ bigsd = 0.054
+ cigsd = 0.075
+ dlcig = 0.0
+ poxedge = 1.0
+ pigcd = 1.0
+ ntox = 1.0
+ toxref = 1.175e-8
* Temperature Effects Parameters
+ kt1 = -0.57573
+ kt2 = -0.019032
+ at = 430000.0
+ ute = -1.3864
+ ua1 = 7.0656e-10
+ ub1 = -3.145e-18
+ uc1 = -1.092e-10
+ kt1l = 0.0
+ prt = 0.0
* BSIM4 - High Speed RF Model Parameters
+ xrcrg1 = 12.0
+ xrcrg2 = 1.0
+ rbpb = 50.0
+ rbpd = 50.0
+ rbps = 50.0
+ rbdb = 50.0
+ rbsb = 50.0
+ gbmin = 1.0e-12
* BSIM4 - Flicker and Thermal Noise Parameters
+ noia = 3.0e+40
+ noib = 8.5300000000000003e+24
+ noic = 84000000.0
+ em = 41000000.0
+ af = 1.0
+ ef = 0.88
+ kf = 0.0
+ ntnoi = 1.0
* BSIM4 - Layout Dependent Parasitic Model Parameters
+ dmcg = 0.0
+ dmcgt = 0.0
+ dmdg = 0.0
+ xgw = 0.0
+ xgl = 0.0
+ ngcon = 1.0
* Diode DC IV Parameters
* BSIM4 - Diode DC IV parameters
+ diomod = 1.0
+ njs = 1.3632
+ jss = 2.1483e-5
+ jsws = 4.02e-12
+ xtis = 10.0
+ bvs = 12.69
+ xjbvs = 1.0
+ ijthsrev = 0.1
+ ijthsfwd = 0.1
* Diode and FET Capacitance Parameters
+ tpb = 0.001671
+ tpbsw = 0.0
+ tpbswg = 0.0
+ tcj = 0.00096
+ tcjsw = 3.0e-5
+ tcjswg = 0.0
+ cgdo = 2.5544132e-10
+ cgso = 2.5544132e-10
+ cgbo = 0.0
+ capmod = 2.0
+ xpart = 0.0
+ cgsl = 1.292646e-11
+ cgdl = 1.292646e-11
+ cf = 1.2e-11
+ clc = 1.0e-7
+ cle = 0.6
+ dlc = 2.7658e-8
+ dwc = 3.2175e-8
+ vfbcv = -0.1446893
+ acde = 0.401
+ moin = 15.773
+ noff = 4.0
+ voffcv = 0.0
+ ngate = 1.0e+23
+ lwc = 0.0
+ llc = 0.0
+ lwlc = 0.0
+ wlc = 0.0
+ wwc = 0.0
+ wwlc = 0.0
* BSIM4 - FET and Diode capacitance parameters
+ ckappas = 0.6
+ cjs = 0.000835724019
+ mjs = 0.33956
+ pbs = 0.6587
+ cjsws = 1.059825712e-10
+ mjsws = 0.24676
+ pbsws = 1.0
+ cjswgs = 1.567456e-10
+ mjswgs = 0.81
+ pbswgs = 3.0
* Stress Parameters
+ saref = 3.0e-6
+ sbref = 3.0e-6
+ wlod = {0+sky130_fd_pr__pfet_g5v0d10v5__wlod_diff}
+ kvth0 = {0+sky130_fd_pr__pfet_g5v0d10v5__kvth0_diff}
+ lkvth0 = {0+sky130_fd_pr__pfet_g5v0d10v5__lkvth0_diff}
+ wkvth0 = {0+sky130_fd_pr__pfet_g5v0d10v5__wkvth0_diff}
+ pkvth0 = 0.0
+ llodvth = 0.0
+ wlodvth = 1.0
+ stk2 = 0.0
+ lodk2 = 1.0
+ lodeta0 = 1.0
+ ku0 = {0+sky130_fd_pr__pfet_g5v0d10v5__ku0_diff}
+ lku0 = {0+sky130_fd_pr__pfet_g5v0d10v5__lku0_diff}
+ wku0 = {0+sky130_fd_pr__pfet_g5v0d10v5__wku0_diff}
+ pku0 = 0.0
+ llodku0 = 0.0
+ wlodku0 = 1.0
+ kvsat = {0+sky130_fd_pr__pfet_g5v0d10v5__kvsat_diff}
+ steta0 = 0.0
+ tku0 = 0.0
.model sky130_fd_pr__pfet_g5v0d10v5__model.1 pmos
* DC IV MOS Parameters
+ lmin = 8e-06 lmax = 2.0e-05 wmin = 2.0e-05 wmax = 1.0e-4
+ level = 54.0
+ tnom = 30.0
+ version = 4.5
+ toxm = 1.175e-8
+ xj = 1.5e-7
+ lln = 1.0
+ lwn = 1.0
+ wln = 1.0
+ wwn = 1.0
+ lint = 2.805e-8
+ ll = 0.0
+ lw = 0.0
+ lwl = 0.0
+ wint = 4.4452e-8
+ wl = 0.0
+ ww = 0.0
+ wwl = 0.0
+ xl = 0.0
+ xw = 0.0
+ mobmod = 0.0
+ binunit = 2.0
+ dwg = -4.7338e-9
+ dwb = 0.0
* BSIM4 - Model Selectors
+ igcmod = 0.0
+ igbmod = 0.0
+ rgatemod = 0.0
+ rbodymod = 1.0
+ trnqsmod = 0.0
+ acnqsmod = 0.0
+ fnoimod = 1.0
+ tnoimod = 1.0
+ permod = 1.0
+ geomod = 0.0
+ rdsmod = 0.0
+ tempmod = 0.0
+ lintnoi = 0.0
+ vfbsdoff = 0.0
+ lambda = 0.0
+ vtl = 0.0
+ lc = 5.0e-9
+ xn = 3.0
+ rnoia = 0.577
+ rnoib = 0.37
+ tnoia = 1.5
+ tnoib = 3.5
* BSIM4 - Process Parameters
+ epsrox = 3.9
+ toxe = {1.2455e-08+sky130_fd_pr__pfet_g5v0d10v5__toxe_slope_spectre*(1.2455e-08*(sky130_fd_pr__pfet_g5v0d10v5__toxe_slope/sqrt(l*w*mult)))}
+ dtox = 0.0
+ ndep = 1.7000000000000000e+17
+ nsd = 1.0e+20
+ rshg = 0.1
+ rsh = 1.0
* Threshold Voltage Parameters
+ vth0 = {-1.057134+sky130_fd_pr__pfet_g5v0d10v5__vth0_slope_spectre*(sky130_fd_pr__pfet_g5v0d10v5__vth0_slope/sqrt(l*w*mult))}
+ k1 = 0.59521
+ k2 = 0.0294389
+ k3 = -2.2405
+ dvt0 = 4.657
+ dvt1 = 0.34864
+ dvt2 = -0.030206
+ dvt0w = -2.2
+ dvt1w = 1016300.0
+ dvt2w = 0.0
+ w0 = 0.0
+ k3b = -0.172
* NEW BSIM4 Parameters for Level 54
+ phin = 0.0
+ lpe0 = 0.0
+ lpeb = 0.0
+ vbm = -3.0
+ dvtp0 = 0.0
+ dvtp1 = 0.0
* Mobility Parameters
+ vsat = 200000.0
+ ua = 2.7344678e-9
+ ub = -4.4406e-19
+ uc = -3.9972e-11
+ rdsw = 788.47
+ prwb = 0.053538
+ prwg = 0.0
+ wr = 1.0
+ u0 = 0.0207994
+ a0 = 0.911307
+ keta = -0.0079259
+ a1 = 0.0
+ a2 = 0.5
+ ags = 0.1271299
+ b0 = 0.0
+ b1 = 0.0
* BSIM4 - Mobility Parameters
+ eu = 1.67
+ rdswmin = 0.0
+ rdw = 0.0
+ rdwmin = 0.0
+ rsw = 0.0
+ rswmin = 0.0
* Subthreshold Current Parameters
+ voff = {-0.093204657+sky130_fd_pr__pfet_g5v0d10v5__voff_slope_spectre*(sky130_fd_pr__pfet_g5v0d10v5__voff_slope/sqrt(l*w*mult))}
+ nfactor = {1.69967+sky130_fd_pr__pfet_g5v0d10v5__nfactor_slope_spectre*(sky130_fd_pr__pfet_g5v0d10v5__nfactor_slope/sqrt(l*w*mult))}
+ up = 0.0
+ ud = 0.0
+ lp = 1.0
+ tvfbsdoff = 0.0
+ tvoff = 0.0
+ cit = 1.0e-5
+ cdsc = 0.0
+ cdscb = 0.0
+ cdscd = 0.0
+ eta0 = 0.08
+ etab = -0.07
+ dsub = 0.56
* BSIM4 - Sub-threshold parameters
+ voffl = 0.0
+ minv = 0.0
* Rout Parameters
+ pclm = 0.08353125
+ pdiblc1 = 0.39
+ pdiblc2 = 0.0029407877
+ pdiblcb = -0.025
+ drout = 0.56
+ pscbe1 = 333712830.0
+ pscbe2 = 1.5000958e-8
+ pvag = 0.0
+ delta = 0.01
+ alpha0 = 5.0667189e-5
+ alpha1 = 0.0
+ beta0 = 38.266046
* BSIM4 - Rout Parameters
+ fprout = 0.0
+ pdits = 0.0
+ pditsl = 0.0
+ pditsd = 0.0
* BSIM4 - Gate Induced Drain Leakage Model Parameters
+ agidl = 7.3657e-9
+ bgidl = 1704700000.0
+ cgidl = 700.0
+ egidl = 0.69350825
* BSIM4 - Gate Leakage Current Parameters
+ aigbacc = 0.43
+ bigbacc = 0.054
+ cigbacc = 0.075
+ nigbacc = 1.0
+ aigbinv = 0.35
+ bigbinv = 0.03
+ cigbinv = 0.006
+ eigbinv = 1.1
+ nigbinv = 3.0
+ aigc = 0.43
+ bigc = 0.054
+ cigc = 0.075
+ nigc = 1.0
+ aigsd = 0.43
+ bigsd = 0.054
+ cigsd = 0.075
+ dlcig = 0.0
+ poxedge = 1.0
+ pigcd = 1.0
+ ntox = 1.0
+ toxref = 1.175e-8
* Temperature Effects Parameters
+ kt1 = -0.57573
+ kt2 = -0.019032
+ at = 430000.0
+ ute = -1.3864
+ ua1 = 7.0656e-10
+ ub1 = -3.145e-18
+ uc1 = -1.092e-10
+ kt1l = 0.0
+ prt = 0.0
* BSIM4 - High Speed RF Model Parameters
+ xrcrg1 = 12.0
+ xrcrg2 = 1.0
+ rbpb = 50.0
+ rbpd = 50.0
+ rbps = 50.0
+ rbdb = 50.0
+ rbsb = 50.0
+ gbmin = 1.0e-12
* BSIM4 - Flicker and Thermal Noise Parameters
+ noia = 3.0e+40
+ noib = 8.5300000000000003e+24
+ noic = 84000000.0
+ em = 41000000.0
+ af = 1.0
+ ef = 0.88
+ kf = 0.0
+ ntnoi = 1.0
* BSIM4 - Layout Dependent Parasitic Model Parameters
+ dmcg = 0.0
+ dmcgt = 0.0
+ dmdg = 0.0
+ xgw = 0.0
+ xgl = 0.0
+ ngcon = 1.0
* Diode DC IV Parameters
* BSIM4 - Diode DC IV parameters
+ diomod = 1.0
+ njs = 1.3632
+ jss = 2.1483e-5
+ jsws = 4.02e-12
+ xtis = 10.0
+ bvs = 12.69
+ xjbvs = 1.0
+ ijthsrev = 0.1
+ ijthsfwd = 0.1
* Diode and FET Capacitance Parameters
+ tpb = 0.001671
+ tpbsw = 0.0
+ tpbswg = 0.0
+ tcj = 0.00096
+ tcjsw = 3.0e-5
+ tcjswg = 0.0
+ cgdo = 2.5544132e-10
+ cgso = 2.5544132e-10
+ cgbo = 0.0
+ capmod = 2.0
+ xpart = 0.0
+ cgsl = 1.292646e-11
+ cgdl = 1.292646e-11
+ cf = 1.2e-11
+ clc = 1.0e-7
+ cle = 0.6
+ dlc = 2.7658e-8
+ dwc = 3.2175e-8
+ vfbcv = -0.1446893
+ acde = 0.401
+ moin = 15.773
+ noff = 4.0
+ voffcv = 0.0
+ ngate = 1.0e+23
+ lwc = 0.0
+ llc = 0.0
+ lwlc = 0.0
+ wlc = 0.0
+ wwc = 0.0
+ wwlc = 0.0
* BSIM4 - FET and Diode capacitance parameters
+ ckappas = 0.6
+ cjs = 0.000835724019
+ mjs = 0.33956
+ pbs = 0.6587
+ cjsws = 1.059825712e-10
+ mjsws = 0.24676
+ pbsws = 1.0
+ cjswgs = 1.567456e-10
+ mjswgs = 0.81
+ pbswgs = 3.0
* Stress Parameters
+ saref = 3.0e-6
+ sbref = 3.0e-6
+ wlod = {0+sky130_fd_pr__pfet_g5v0d10v5__wlod_diff}
+ kvth0 = {0+sky130_fd_pr__pfet_g5v0d10v5__kvth0_diff}
+ lkvth0 = {0+sky130_fd_pr__pfet_g5v0d10v5__lkvth0_diff}
+ wkvth0 = {0+sky130_fd_pr__pfet_g5v0d10v5__wkvth0_diff}
+ pkvth0 = 0.0
+ llodvth = 0.0
+ wlodvth = 1.0
+ stk2 = 0.0
+ lodk2 = 1.0
+ lodeta0 = 1.0
+ ku0 = {0+sky130_fd_pr__pfet_g5v0d10v5__ku0_diff}
+ lku0 = {0+sky130_fd_pr__pfet_g5v0d10v5__lku0_diff}
+ wku0 = {0+sky130_fd_pr__pfet_g5v0d10v5__wku0_diff}
+ pku0 = 0.0
+ llodku0 = 0.0
+ wlodku0 = 1.0
+ kvsat = {0+sky130_fd_pr__pfet_g5v0d10v5__kvsat_diff}
+ steta0 = 0.0
+ tku0 = 0.0
.model sky130_fd_pr__pfet_g5v0d10v5__model.2 pmos
* DC IV MOS Parameters
+ lmin = 4e-06 lmax = 8e-06 wmin = 2.0e-05 wmax = 1.0e-4
+ level = 54.0
+ tnom = 30.0
+ version = 4.5
+ toxm = 1.175e-8
+ xj = 1.5e-7
+ lln = 1.0
+ lwn = 1.0
+ wln = 1.0
+ wwn = 1.0
+ lint = 2.805e-8
+ ll = 0.0
+ lw = 0.0
+ lwl = 0.0
+ wint = 4.4452e-8
+ wl = 0.0
+ ww = 0.0
+ wwl = 0.0
+ xl = 0.0
+ xw = 0.0
+ mobmod = 0.0
+ binunit = 2.0
+ dwg = -4.7338e-9
+ dwb = 0.0
* BSIM4 - Model Selectors
+ igcmod = 0.0
+ igbmod = 0.0
+ rgatemod = 0.0
+ rbodymod = 1.0
+ trnqsmod = 0.0
+ acnqsmod = 0.0
+ fnoimod = 1.0
+ tnoimod = 1.0
+ permod = 1.0
+ geomod = 0.0
+ rdsmod = 0.0
+ tempmod = 0.0
+ lintnoi = 0.0
+ vfbsdoff = 0.0
+ lambda = 0.0
+ vtl = 0.0
+ lc = 5.0e-9
+ xn = 3.0
+ rnoia = 0.577
+ rnoib = 0.37
+ tnoia = 1.5
+ tnoib = 3.5
* BSIM4 - Process Parameters
+ epsrox = 3.9
+ toxe = {1.2455e-08+sky130_fd_pr__pfet_g5v0d10v5__toxe_slope_spectre*(1.2455e-08*(sky130_fd_pr__pfet_g5v0d10v5__toxe_slope/sqrt(l*w*mult)))}
+ dtox = 0.0
+ ndep = 1.7000000000000000e+17
+ nsd = 1.0e+20
+ rshg = 0.1
+ rsh = 1.0
* Threshold Voltage Parameters
+ vth0 = {-1.06129678645+sky130_fd_pr__pfet_g5v0d10v5__vth0_slope_spectre*(sky130_fd_pr__pfet_g5v0d10v5__vth0_slope/sqrt(l*w*mult))} lvth0 = 3.30687592801532e-8
+ k1 = 0.60423167125 lk1 = -7.16672542428745e-8
+ k2 = 0.0278592694525 lk2 = 1.25484271062852e-8
+ k3 = -2.2405
+ dvt0 = 4.657
+ dvt1 = 0.34864
+ dvt2 = -0.030206
+ dvt0w = -2.2
+ dvt1w = 1016300.0
+ dvt2w = 0.0
+ w0 = 0.0
+ k3b = -0.172
* NEW BSIM4 Parameters for Level 54
+ phin = 0.0
+ lpe0 = 0.0
+ lpeb = 0.0
+ vbm = -3.0
+ dvtp0 = 0.0
+ dvtp1 = 0.0
* Mobility Parameters
+ vsat = 298587.64025 lvsat = -0.783170355381975
+ ua = 2.4949572179375e-09 lua = 1.90264811284629e-15
+ ub = -2.008594065e-19 lub = -1.93196119470465e-24
+ uc = -5.1678481175e-11 luc = 9.29951158060825e-17
+ rdsw = 788.47
+ prwb = 0.053538
+ prwg = 0.0
+ wr = 1.0
+ u0 = 0.0199748291075 lu0 = 6.55030871293077e-9
+ a0 = 0.933098033475 la0 = -1.73105790822051e-7
+ keta = -0.0049304093525 lketa = -2.37958781546752e-8
+ a1 = 0.0
+ a2 = 0.5
+ ags = 0.104081156815 lags = 1.83096910987322e-7
+ b0 = 0.0
+ b1 = 0.0
* BSIM4 - Mobility Parameters
+ eu = 1.67
+ rdswmin = 0.0
+ rdw = 0.0
+ rdwmin = 0.0
+ rsw = 0.0
+ rswmin = 0.0
* Subthreshold Current Parameters
+ voff = {-0.09479041045225+sky130_fd_pr__pfet_g5v0d10v5__voff_slope_spectre*(sky130_fd_pr__pfet_g5v0d10v5__voff_slope/sqrt(l*w*mult))} lvoff = 1.25970668493288e-8
+ nfactor = {1.7321085775+sky130_fd_pr__pfet_g5v0d10v5__nfactor_slope_spectre*(sky130_fd_pr__pfet_g5v0d10v5__nfactor_slope/sqrt(l*w*mult))} lnfactor = -2.57688815802249e-7
+ up = 0.0
+ ud = 0.0
+ lp = 1.0
+ tvfbsdoff = 0.0
+ tvoff = 0.0
+ cit = 1.0e-5
+ cdsc = 0.0
+ cdscb = 0.0
+ cdscd = 0.0
+ eta0 = 0.08
+ etab = -0.07
+ dsub = 0.56
* BSIM4 - Sub-threshold parameters
+ voffl = 0.0
+ minv = 0.0
* Rout Parameters
+ pclm = -0.6548060915245 lpclm = 5.86527800733647e-06 wpclm = -1.6940658945086e-21 ppclm = -3.23117426778526e-27
+ pdiblc1 = 0.39
+ pdiblc2 = 0.0045684231025075 lpdiblc2 = -1.29297728739793e-8
+ pdiblcb = -0.025
+ drout = 0.56
+ pscbe1 = 564147837.55925 lpscbe1 = -1830.55265654993
+ pscbe2 = -1.558611817795e-08 lpscbe2 = 2.42980674450017e-13
+ pvag = 0.0
+ delta = 0.01
+ alpha0 = 7.83968484975e-05 lalpha0 = -2.2028164208219e-10
+ alpha1 = 0.0
+ beta0 = 39.148037118575 lbeta0 = -7.00644924684799e-6
* BSIM4 - Rout Parameters
+ fprout = 0.0
+ pdits = 0.0
+ pditsl = 0.0
+ pditsd = 0.0
* BSIM4 - Gate Induced Drain Leakage Model Parameters
+ agidl = 6.5314665525e-09 lagidl = 6.62706708359525e-15
+ bgidl = 1476348190.0 lbgidl = 1814.003943459
+ cgidl = 934.66205 lcgidl = -0.001864131858995
+ egidl = 1.21389074000325 legidl = -4.13386646233682e-6
* BSIM4 - Gate Leakage Current Parameters
+ aigbacc = 0.43
+ bigbacc = 0.054
+ cigbacc = 0.075
+ nigbacc = 1.0
+ aigbinv = 0.35
+ bigbinv = 0.03
+ cigbinv = 0.006
+ eigbinv = 1.1
+ nigbinv = 3.0
+ aigc = 0.43
+ bigc = 0.054
+ cigc = 0.075
+ nigc = 1.0
+ aigsd = 0.43
+ bigsd = 0.054
+ cigsd = 0.075
+ dlcig = 0.0
+ poxedge = 1.0
+ pigcd = 1.0
+ ntox = 1.0
+ toxref = 1.175e-8
* Temperature Effects Parameters
+ kt1 = -0.58532353675 lkt1 = 7.62100965883249e-8
+ kt2 = -0.019032
+ at = 675202.12275 lat = -1.94786114291372
+ ute = -1.2190800425 lute = -1.32917301038425e-6
+ ua1 = 1.3814243924e-09 lua1 = -5.36105524678636e-15
+ ub1 = -2.605671675e-18 lub1 = -4.2843702809675e-24
+ uc1 = -1.092e-10
+ kt1l = 0.0
+ prt = 0.0
* BSIM4 - High Speed RF Model Parameters
+ xrcrg1 = 12.0
+ xrcrg2 = 1.0
+ rbpb = 50.0
+ rbpd = 50.0
+ rbps = 50.0
+ rbdb = 50.0
+ rbsb = 50.0
+ gbmin = 1.0e-12
* BSIM4 - Flicker and Thermal Noise Parameters
+ noia = 3.0e+40
+ noib = 8.5300000000000003e+24
+ noic = 84000000.0
+ em = 41000000.0
+ af = 1.0
+ ef = 0.88
+ kf = 0.0
+ ntnoi = 1.0
* BSIM4 - Layout Dependent Parasitic Model Parameters
+ dmcg = 0.0
+ dmcgt = 0.0
+ dmdg = 0.0
+ xgw = 0.0
+ xgl = 0.0
+ ngcon = 1.0
* Diode DC IV Parameters
* BSIM4 - Diode DC IV parameters
+ diomod = 1.0
+ njs = 1.3632
+ jss = 2.1483e-5
+ jsws = 4.02e-12
+ xtis = 10.0
+ bvs = 12.69
+ xjbvs = 1.0
+ ijthsrev = 0.1
+ ijthsfwd = 0.1
* Diode and FET Capacitance Parameters
+ tpb = 0.001671
+ tpbsw = 0.0
+ tpbswg = 0.0
+ tcj = 0.00096
+ tcjsw = 3.0e-5
+ tcjswg = 0.0
+ cgdo = 2.5544132e-10
+ cgso = 2.5544132e-10
+ cgbo = 0.0
+ capmod = 2.0
+ xpart = 0.0
+ cgsl = 1.292646e-11
+ cgdl = 1.292646e-11
+ cf = 1.2e-11
+ clc = 1.0e-7
+ cle = 0.6
+ dlc = 2.7658e-8
+ dwc = 3.2175e-8
+ vfbcv = -0.1446893
+ acde = 0.401
+ moin = 15.773
+ noff = 4.0
+ voffcv = 0.0
+ ngate = 1.0e+23
+ lwc = 0.0
+ llc = 0.0
+ lwlc = 0.0
+ wlc = 0.0
+ wwc = 0.0
+ wwlc = 0.0
* BSIM4 - FET and Diode capacitance parameters
+ ckappas = 0.6
+ cjs = 0.000835724019
+ mjs = 0.33956
+ pbs = 0.6587
+ cjsws = 1.059825712e-10
+ mjsws = 0.24676
+ pbsws = 1.0
+ cjswgs = 1.567456e-10
+ mjswgs = 0.81
+ pbswgs = 3.0
* Stress Parameters
+ saref = 3.0e-6
+ sbref = 3.0e-6
+ wlod = {0+sky130_fd_pr__pfet_g5v0d10v5__wlod_diff}
+ kvth0 = {0+sky130_fd_pr__pfet_g5v0d10v5__kvth0_diff}
+ lkvth0 = {0+sky130_fd_pr__pfet_g5v0d10v5__lkvth0_diff}
+ wkvth0 = {0+sky130_fd_pr__pfet_g5v0d10v5__wkvth0_diff}
+ pkvth0 = 0.0
+ llodvth = 0.0
+ wlodvth = 1.0
+ stk2 = 0.0
+ lodk2 = 1.0
+ lodeta0 = 1.0
+ ku0 = {0+sky130_fd_pr__pfet_g5v0d10v5__ku0_diff}
+ lku0 = {0+sky130_fd_pr__pfet_g5v0d10v5__lku0_diff}
+ wku0 = {0+sky130_fd_pr__pfet_g5v0d10v5__wku0_diff}
+ pku0 = 0.0
+ llodku0 = 0.0
+ wlodku0 = 1.0
+ kvsat = {0+sky130_fd_pr__pfet_g5v0d10v5__kvsat_diff}
+ steta0 = 0.0
+ tku0 = 0.0
.model sky130_fd_pr__pfet_g5v0d10v5__model.3 pmos
* DC IV MOS Parameters
+ lmin = 2e-06 lmax = 4e-06 wmin = 2.0e-05 wmax = 1.0e-4
+ level = 54.0
+ tnom = 30.0
+ version = 4.5
+ toxm = 1.175e-8
+ xj = 1.5e-7
+ lln = 1.0
+ lwn = 1.0
+ wln = 1.0
+ wwn = 1.0
+ lint = 2.805e-8
+ ll = 0.0
+ lw = 0.0
+ lwl = 0.0
+ wint = 4.4452e-8
+ wl = 0.0
+ ww = 0.0
+ wwl = 0.0
+ xl = 0.0
+ xw = 0.0
+ mobmod = 0.0
+ binunit = 2.0
+ dwg = -4.7338e-9
+ dwb = 0.0
* BSIM4 - Model Selectors
+ igcmod = 0.0
+ igbmod = 0.0
+ rgatemod = 0.0
+ rbodymod = 1.0
+ trnqsmod = 0.0
+ acnqsmod = 0.0
+ fnoimod = 1.0
+ tnoimod = 1.0
+ permod = 1.0
+ geomod = 0.0
+ rdsmod = 0.0
+ tempmod = 0.0
+ lintnoi = 0.0
+ vfbsdoff = 0.0
+ lambda = 0.0
+ vtl = 0.0
+ lc = 5.0e-9
+ xn = 3.0
+ rnoia = 0.577
+ rnoib = 0.37
+ tnoia = 1.5
+ tnoib = 3.5
* BSIM4 - Process Parameters
+ epsrox = 3.9
+ toxe = {1.2455e-08+sky130_fd_pr__pfet_g5v0d10v5__toxe_slope_spectre*(1.2455e-08*(sky130_fd_pr__pfet_g5v0d10v5__toxe_slope/sqrt(l*w*mult)))}
+ dtox = 0.0
+ ndep = 1.7000000000000000e+17
+ nsd = 1.0e+20
+ rshg = 0.1
+ rsh = 1.0
* Threshold Voltage Parameters
+ vth0 = {-1.0381655746+sky130_fd_pr__pfet_g5v0d10v5__vth0_slope_spectre*(sky130_fd_pr__pfet_g5v0d10v5__vth0_slope/sqrt(l*w*mult))} lvth0 = -5.81584271350592e-8
+ k1 = 0.602894174 lk1 = -6.63922988386e-8
+ k2 = 0.0297949601 lk2 = 4.91425676161001e-9
+ k3 = -2.2405
+ dvt0 = 4.657
+ dvt1 = 0.34864
+ dvt2 = -0.030206
+ dvt0w = -2.2
+ dvt1w = 1016300.0
+ dvt2w = 0.0
+ w0 = 0.0
+ k3b = -0.172
* NEW BSIM4 Parameters for Level 54
+ phin = 0.0
+ lpe0 = 0.0
+ lpeb = 0.0
+ vbm = -3.0
+ dvtp0 = 0.0
+ dvtp1 = 0.0
* Mobility Parameters
+ vsat = 84264.41 lvsat = 0.062099032401
+ ua = 3.28797678225e-09 lua = -1.22494174684578e-15
+ ub = -1.7328156315e-18 lub = 4.10992096107285e-24 wub = -5.87747175411144e-39 pub = -1.12103877145985e-44
+ uc = -5.540982305e-11 luc = 1.07711155026895e-16
+ rdsw = 788.47
+ prwb = 0.053538
+ prwg = 0.0
+ wr = 1.0
+ u0 = 0.02086513804 lu0 = 3.039019314044e-9
+ a0 = 0.8222697474 la0 = 2.63989886629141e-7
+ keta = -0.0049806758 lketa = -2.359763231238e-8
+ a1 = 0.0
+ a2 = 0.5
+ ags = 0.101458501175 lags = 1.93440402565918e-7
+ b0 = 0.0
+ b1 = 0.0
* BSIM4 - Mobility Parameters
+ eu = 1.67
+ rdswmin = 0.0
+ rdw = 0.0
+ rdwmin = 0.0
+ rsw = 0.0
+ rswmin = 0.0
* Subthreshold Current Parameters
+ voff = {-0.06358776784865+sky130_fd_pr__pfet_g5v0d10v5__voff_slope_spectre*(sky130_fd_pr__pfet_g5v0d10v5__voff_slope/sqrt(l*w*mult))} lvoff = -1.10463035315009e-7
+ nfactor = {2.07037515335+sky130_fd_pr__pfet_g5v0d10v5__nfactor_slope_spectre*(sky130_fd_pr__pfet_g5v0d10v5__nfactor_slope/sqrt(l*w*mult))} lnfactor = -1.59177836429707e-6
+ up = 0.0
+ ud = 0.0
+ lp = 1.0
+ tvfbsdoff = 0.0
+ tvoff = 0.0
+ cit = 1.0e-5
+ cdsc = 0.0
+ cdscb = 0.0
+ cdscd = 0.0
+ eta0 = 0.01798959 leta0 = 2.44562855999e-7
+ etab = -0.1233522794 letab = 2.1041605472566e-7
+ dsub = 0.8193648575 ldsub = -1.02290906149425e-6
* BSIM4 - Sub-threshold parameters
+ voffl = 0.0
+ minv = 0.0
* Rout Parameters
+ pclm = 1.0526929389875 lpclm = -8.68927419099802e-7
+ pdiblc1 = 0.58503867943 lpdiblc1 = -7.69213047803977e-7
+ pdiblc2 = -0.0011773222896 lpdiblc2 = 9.73087237795344e-09 ppdiblc2 = 2.52435489670724e-29
+ pdiblcb = 0.16939 lpdiblcb = -7.66654721e-07 wpdiblcb = -2.11758236813575e-22 ppdiblcb = 4.03896783473158e-28
+ drout = 0.132342 ldrout = 1.6866403862e-6
+ pscbe1 = -160819458.431 lpscbe1 = 1028.64586210602
+ pscbe2 = 7.662008170125e-08 lpscbe2 = -1.2067135725356e-13
+ pvag = 0.0
+ delta = 0.01
+ alpha0 = 4.445374715855e-05 lalpha0 = -8.64134447115054e-11
+ alpha1 = -9.7195e-11 lalpha1 = 3.833273605e-16
+ beta0 = 70.77889717255 lbeta0 = -0.00013175539821372
* BSIM4 - Rout Parameters
+ fprout = 0.0
+ pdits = 0.0
+ pditsl = 0.0
+ pditsd = 0.0
* BSIM4 - Gate Induced Drain Leakage Model Parameters
+ agidl = 9.21504679e-09 lagidl = -3.956705015081e-15
+ bgidl = 2632410590 lbgidl = -2745.390555901
+ cgidl = 455.6337275 lcgidl = 2.51079421127497e-5
+ egidl = -1.617101386419 legidl = 7.0312833850599e-06 wegidl = 1.6940658945086e-21 pegidl = 3.23117426778526e-27
* BSIM4 - Gate Leakage Current Parameters
+ aigbacc = 0.43
+ bigbacc = 0.054
+ cigbacc = 0.075
+ nigbacc = 1.0
+ aigbinv = 0.35
+ bigbinv = 0.03
+ cigbinv = 0.006
+ eigbinv = 1.1
+ nigbinv = 3.0
+ aigc = 0.43
+ bigc = 0.054
+ cigc = 0.075
+ nigc = 1.0
+ aigsd = 0.43
+ bigsd = 0.054
+ cigsd = 0.075
+ dlcig = 0.0
+ poxedge = 1.0
+ pigcd = 1.0
+ ntox = 1.0
+ toxref = 1.175e-8
* Temperature Effects Parameters
+ kt1 = -0.56697195 lkt1 = 3.83327360500023e-9
+ kt2 = -0.019032
+ at = 210964.1945 lat = -0.11695317768855
+ ute = -1.707821395 lute = 5.98374009740501e-7
+ ua1 = -4.933329728e-10 lua1 = 2.03280032582592e-15 wua1 = 7.88860905221012e-31 pua1 = -1.50463276905253e-36
+ ub1 = -3.720478135e-18 lub1 = 1.12314916626499e-25
+ uc1 = -1.092e-10
+ kt1l = 0.0
+ prt = 0.0
* BSIM4 - High Speed RF Model Parameters
+ xrcrg1 = 12.0
+ xrcrg2 = 1.0
+ rbpb = 50.0
+ rbpd = 50.0
+ rbps = 50.0
+ rbdb = 50.0
+ rbsb = 50.0
+ gbmin = 1.0e-12
* BSIM4 - Flicker and Thermal Noise Parameters
+ noia = 3.0e+40
+ noib = 8.5300000000000003e+24
+ noic = 84000000.0
+ em = 41000000.0
+ af = 1.0
+ ef = 0.88
+ kf = 0.0
+ ntnoi = 1.0
* BSIM4 - Layout Dependent Parasitic Model Parameters
+ dmcg = 0.0
+ dmcgt = 0.0
+ dmdg = 0.0
+ xgw = 0.0
+ xgl = 0.0
+ ngcon = 1.0
* Diode DC IV Parameters
* BSIM4 - Diode DC IV parameters
+ diomod = 1.0
+ njs = 1.3632
+ jss = 2.1483e-5
+ jsws = 4.02e-12
+ xtis = 10.0
+ bvs = 12.69
+ xjbvs = 1.0
+ ijthsrev = 0.1
+ ijthsfwd = 0.1
* Diode and FET Capacitance Parameters
+ tpb = 0.001671
+ tpbsw = 0.0
+ tpbswg = 0.0
+ tcj = 0.00096
+ tcjsw = 3.0e-5
+ tcjswg = 0.0
+ cgdo = 2.5544132e-10
+ cgso = 2.5544132e-10
+ cgbo = 0.0
+ capmod = 2.0
+ xpart = 0.0
+ cgsl = 1.292646e-11
+ cgdl = 1.292646e-11
+ cf = 1.2e-11
+ clc = 1.0e-7
+ cle = 0.6
+ dlc = 2.7658e-8
+ dwc = 3.2175e-8
+ vfbcv = -0.1446893
+ acde = 0.401
+ moin = 15.773
+ noff = 4.0
+ voffcv = 0.0
+ ngate = 1.0e+23
+ lwc = 0.0
+ llc = 0.0
+ lwlc = 0.0
+ wlc = 0.0
+ wwc = 0.0
+ wwlc = 0.0
* BSIM4 - FET and Diode capacitance parameters
+ ckappas = 0.6
+ cjs = 0.000835724019
+ mjs = 0.33956
+ pbs = 0.6587
+ cjsws = 1.059825712e-10
+ mjsws = 0.24676
+ pbsws = 1.0
+ cjswgs = 1.567456e-10
+ mjswgs = 0.81
+ pbswgs = 3.0
* Stress Parameters
+ saref = 3.0e-6
+ sbref = 3.0e-6
+ wlod = {0+sky130_fd_pr__pfet_g5v0d10v5__wlod_diff}
+ kvth0 = {0+sky130_fd_pr__pfet_g5v0d10v5__kvth0_diff}
+ lkvth0 = {0+sky130_fd_pr__pfet_g5v0d10v5__lkvth0_diff}
+ wkvth0 = {0+sky130_fd_pr__pfet_g5v0d10v5__wkvth0_diff}
+ pkvth0 = 0.0
+ llodvth = 0.0
+ wlodvth = 1.0
+ stk2 = 0.0
+ lodk2 = 1.0
+ lodeta0 = 1.0
+ ku0 = {0+sky130_fd_pr__pfet_g5v0d10v5__ku0_diff}
+ lku0 = {0+sky130_fd_pr__pfet_g5v0d10v5__lku0_diff}
+ wku0 = {0+sky130_fd_pr__pfet_g5v0d10v5__wku0_diff}
+ pku0 = 0.0
+ llodku0 = 0.0
+ wlodku0 = 1.0
+ kvsat = {0+sky130_fd_pr__pfet_g5v0d10v5__kvsat_diff}
+ steta0 = 0.0
+ tku0 = 0.0
.model sky130_fd_pr__pfet_g5v0d10v5__model.4 pmos
* DC IV MOS Parameters
+ lmin = 1e-06 lmax = 2e-06 wmin = 2.0e-05 wmax = 1.0e-4
+ level = 54.0
+ tnom = 30.0
+ version = 4.5
+ toxm = 1.175e-8
+ xj = 1.5e-7
+ lln = 1.0
+ lwn = 1.0
+ wln = 1.0
+ wwn = 1.0
+ lint = 2.805e-8
+ ll = 0.0
+ lw = 0.0
+ lwl = 0.0
+ wint = 4.4452e-8
+ wl = 0.0
+ ww = 0.0
+ wwl = 0.0
+ xl = 0.0
+ xw = 0.0
+ mobmod = 0.0
+ binunit = 2.0
+ dwg = -4.7338e-9
+ dwb = 0.0
* BSIM4 - Model Selectors
+ igcmod = 0.0
+ igbmod = 0.0
+ rgatemod = 0.0
+ rbodymod = 1.0
+ trnqsmod = 0.0
+ acnqsmod = 0.0
+ fnoimod = 1.0
+ tnoimod = 1.0
+ permod = 1.0
+ geomod = 0.0
+ rdsmod = 0.0
+ tempmod = 0.0
+ lintnoi = 0.0
+ vfbsdoff = 0.0
+ lambda = 0.0
+ vtl = 0.0
+ lc = 5.0e-9
+ xn = 3.0
+ rnoia = 0.577
+ rnoib = 0.37
+ tnoia = 1.5
+ tnoib = 3.5
* BSIM4 - Process Parameters
+ epsrox = 3.9
+ toxe = {1.2455e-08+sky130_fd_pr__pfet_g5v0d10v5__toxe_slope_spectre*(1.2455e-08*(sky130_fd_pr__pfet_g5v0d10v5__toxe_slope/sqrt(l*w*mult)))}
+ dtox = 0.0
+ ndep = 1.7000000000000000e+17
+ nsd = 1.0e+20
+ rshg = 0.1
+ rsh = 1.0
* Threshold Voltage Parameters
+ vth0 = {-1.0877095688+sky130_fd_pr__pfet_g5v0d10v5__vth0_slope_spectre*(sky130_fd_pr__pfet_g5v0d10v5__vth0_slope/sqrt(l*w*mult))} lvth0 = 3.81501431903203e-8
+ k1 = 0.558687465 lk1 = 1.95411227864998e-8
+ k2 = 0.0276516389 lk2 = 9.08065884229002e-9
+ k3 = -2.2405
+ dvt0 = 4.657
+ dvt1 = 0.34864
+ dvt2 = -0.030206
+ dvt0w = -2.2
+ dvt1w = 1016300.0
+ dvt2w = 0.0
+ w0 = 0.0
+ k3b = -0.172
* NEW BSIM4 Parameters for Level 54
+ phin = 0.0
+ lpe0 = 0.0
+ lpeb = 0.0
+ vbm = -3.0
+ dvtp0 = 0.0
+ dvtp1 = 0.0
* Mobility Parameters
+ vsat = 180698.1919 lvsat = -0.12535859623441
+ ua = 3.54875561152e-09 lua = -1.73186971306373e-15
+ ub = -5.0176592e-20 lub = 8.390389321888e-25
+ uc = 5.52615694e-13 luc = -1.0742296475666e-18
+ rdsw = 788.47
+ prwb = 0.053538
+ prwg = 0.0
+ wr = 1.0
+ u0 = 0.02533542883 lu0 = -5.650778952637e-9
+ a0 = 1.0672917251 la0 = -2.1230833582189e-7
+ keta = 0.0466423328 lketa = -1.2394759872992e-07 pketa = 1.0097419586829e-28
+ a1 = 0.0
+ a2 = 0.5
+ ags = -0.2686976498 lags = 9.1298694444622e-7
+ b0 = 0.0
+ b1 = 0.0
* BSIM4 - Mobility Parameters
+ eu = 1.67
+ rdswmin = 0.0
+ rdw = 0.0
+ rdwmin = 0.0
+ rsw = 0.0
+ rswmin = 0.0
* Subthreshold Current Parameters
+ voff = {-0.1606776136623+sky130_fd_pr__pfet_g5v0d10v5__voff_slope_spectre*(sky130_fd_pr__pfet_g5v0d10v5__voff_slope/sqrt(l*w*mult))} lvoff = 7.8269915962145e-8
+ nfactor = {0.9875336553+sky130_fd_pr__pfet_g5v0d10v5__nfactor_slope_spectre*(sky130_fd_pr__pfet_g5v0d10v5__nfactor_slope/sqrt(l*w*mult))} lnfactor = 5.1315722376233e-7
+ up = 0.0
+ ud = 0.0
+ lp = 1.0
+ tvfbsdoff = 0.0
+ tvoff = 0.0
+ cit = 1.47195e-05 lcit = -9.17423605e-12
+ cdsc = 0.0
+ cdscb = 0.0
+ cdscd = 0.0
+ eta0 = 0.2795057857601 leta0 = -2.63798476939058e-7
+ etab = -0.0293684412 letab = 2.772087164868e-8
+ dsub = 0.056221661 ldsub = 4.605649981821e-7
* BSIM4 - Sub-threshold parameters
+ voffl = 0.0
+ minv = 0.0
* Rout Parameters
+ pclm = 0.041796294998 lpclm = 1.09615456715139e-6
+ pdiblc1 = -0.00906932782000003 lpdiblc1 = 3.85673507489298e-7
+ pdiblc2 = 0.00602058784087 lpdiblc2 = -4.26114512466719e-9
+ pdiblcb = -0.41378 lpdiblcb = 3.66969442e-7
+ drout = 1.556250265901 ldrout = -1.08129489188495e-6
+ pscbe1 = 433349461.692 lpscbe1 = -126.359101721079
+ pscbe2 = 1.45323618864e-08 lpscbe2 = 2.09612945270377e-17
+ pvag = 0.0
+ delta = 0.01
+ alpha0 = -6.40086482779e-05 lalpha0 = 1.2442660577741e-10 walpha0 = -9.59846506427666e-26 palpha0 = -4.10095184369112e-32
+ alpha1 = 1.9439e-10 lalpha1 = -1.83484721e-16
+ beta0 = -41.5076459075 lbeta0 = 8.65184128795893e-05 wbeta0 = -2.71050543121376e-20 pbeta0 = 7.75481824268463e-26
* BSIM4 - Rout Parameters
+ fprout = 0.0
+ pdits = 0.0
+ pditsl = 0.0
+ pditsd = 0.0
* BSIM4 - Gate Induced Drain Leakage Model Parameters