* Copyright 2020 The SkyWater PDK Authors
*
* Licensed under the Apache License, Version 2.0 (the "License");
* you may not use this file except in compliance with the License.
* You may obtain a copy of the License at
*
*     https://www.apache.org/licenses/LICENSE-2.0
*
* Unless required by applicable law or agreed to in writing, software
* distributed under the License is distributed on an "AS IS" BASIS,
* WITHOUT WARRANTIES OR CONDITIONS OF ANY KIND, either express or implied.
* See the License for the specific language governing permissions and
* limitations under the License.

* SKY130 Spice File.
.param sky130_fd_pr__pfet_g5v0d10v5__toxe_slope_spectre = 0.0
.param sky130_fd_pr__pfet_g5v0d10v5__vth0_slope_spectre = 0.0
.param sky130_fd_pr__pfet_g5v0d10v5__voff_slope_spectre = 0.0
.param sky130_fd_pr__pfet_g5v0d10v5__nfactor_slope_spectre = 0.0
* statistics {
*   process {
*   }
*   mismatch {
*     vary sky130_fd_pr__pfet_g5v0d10v5__toxe_slope_spectre dist=gauss std = 1.0
*     vary sky130_fd_pr__pfet_g5v0d10v5__vth0_slope_spectre dist=gauss std = 1.0
*     vary sky130_fd_pr__pfet_g5v0d10v5__voff_slope_spectre dist=gauss std = 1.0
*     vary sky130_fd_pr__pfet_g5v0d10v5__nfactor_slope_spectre dist=gauss std = 1.0
*   }
* }
.subckt  sky130_fd_pr__pfet_g5v0d10v5 d g s b
+ 
.param  l = 1 w = 1 ad = 0 as = 0 pd = 0 ps = 0 nrd = 0 nrs = 0 sa = 0 sb = 0 sd = 0 mult = 1 nf = 1.0
msky130_fd_pr__pfet_g5v0d10v5 d g s b sky130_fd_pr__pfet_g5v0d10v5__model l = {l} w = {w} ad = {ad} as = {as} pd = {pd} ps = {ps} nrd = {nrd} nrs = {nrs} sa = {sa} sb = {sb} sd = {sd} nf = {nf}
.model sky130_fd_pr__pfet_g5v0d10v5__model.0 pmos
* DC IV MOS Parameters
+ lmin = 2.0e-05 lmax = 1.0e-04 wmin = 2.0e-05 wmax = 1.0e-4
+ level = 54.0
+ tnom = 30.0
+ version = 4.5
+ toxm = 1.175e-8
+ xj = 1.5e-7
+ lln = 1.0
+ lwn = 1.0
+ wln = 1.0
+ wwn = 1.0
+ lint = 3.32475e-8
+ ll = 0.0
+ lw = 0.0
+ lwl = 0.0
+ wint = 3.4797e-8
+ wl = 0.0
+ ww = 0.0
+ wwl = 0.0
+ xl = 0.0
+ xw = 0.0
+ mobmod = 0.0
+ binunit = 2.0
+ dwg = -4.7338e-9
+ dwb = 0.0
* BSIM4 - Model Selectors
+ igcmod = 0.0
+ igbmod = 0.0
+ rgatemod = 0.0
+ rbodymod = 1.0
+ trnqsmod = 0.0
+ acnqsmod = 0.0
+ fnoimod = 1.0
+ tnoimod = 1.0
+ permod = 1.0
+ geomod = 0.0
+ rdsmod = 0.0
+ tempmod = 0.0
+ lintnoi = 0.0
+ vfbsdoff = 0.0
+ lambda = 0.0
+ vtl = 0.0
+ lc = 5.0e-9
+ xn = 3.0
+ rnoia = 0.577
+ rnoib = 0.37
+ tnoia = 1.5
+ tnoib = 3.5
* BSIM4 - Process Parameters
+ epsrox = 3.9
+ toxe = {1.22435e-08+sky130_fd_pr__pfet_g5v0d10v5__toxe_slope_spectre*(1.22435e-08*(sky130_fd_pr__pfet_g5v0d10v5__toxe_slope/sqrt(l*w*mult)))}
+ dtox = 0.0
+ ndep = 1.7000000000000000e+17
+ nsd = 1.0e+20
+ rshg = 0.1
+ rsh = 1.0
* Threshold Voltage Parameters
+ vth0 = {-1.042752+sky130_fd_pr__pfet_g5v0d10v5__vth0_slope_spectre*(sky130_fd_pr__pfet_g5v0d10v5__vth0_slope/sqrt(l*w*mult))}
+ k1 = 0.59521
+ k2 = 0.0283168
+ k3 = -2.2405
+ dvt0 = 4.657
+ dvt1 = 0.34864
+ dvt2 = -0.030206
+ dvt0w = -2.2
+ dvt1w = 1016300.0
+ dvt2w = 0.0
+ w0 = 0.0
+ k3b = -0.172
* NEW BSIM4 Parameters for Level 54
+ phin = 0.0
+ lpe0 = 0.0
+ lpeb = 0.0
+ vbm = -3.0
+ dvtp0 = 0.0
+ dvtp1 = 0.0
* Mobility Parameters
+ vsat = 200000.0
+ ua = 2.7086332e-9
+ ub = -4.1451e-19
+ uc = -3.9972e-11
+ rdsw = 788.47
+ prwb = 0.053538
+ prwg = 0.0
+ wr = 1.0
+ u0 = 0.0204141
+ a0 = 0.909575
+ keta = -0.0079259
+ a1 = 0.0
+ a2 = 0.5
+ ags = 0.120633
+ b0 = 0.0
+ b1 = 0.0
* BSIM4 - Mobility Parameters
+ eu = 1.67
+ rdswmin = 0.0
+ rdw = 0.0
+ rdwmin = 0.0
+ rsw = 0.0
+ rswmin = 0.0
* Subthreshold Current Parameters
+ voff = {-0.093204657+sky130_fd_pr__pfet_g5v0d10v5__voff_slope_spectre*(sky130_fd_pr__pfet_g5v0d10v5__voff_slope/sqrt(l*w*mult))}
+ nfactor = {1.72595+sky130_fd_pr__pfet_g5v0d10v5__nfactor_slope_spectre*(sky130_fd_pr__pfet_g5v0d10v5__nfactor_slope/sqrt(l*w*mult))}
+ up = 0.0
+ ud = 0.0
+ lp = 1.0
+ tvfbsdoff = 0.0
+ tvoff = 0.0
+ cit = 1.0e-5
+ cdsc = 0.0
+ cdscb = 0.0
+ cdscd = 0.0
+ eta0 = 0.08
+ etab = -0.07
+ dsub = 0.56
* BSIM4 - Sub-threshold parameters
+ voffl = 0.0
+ minv = 0.0
* Rout Parameters
+ pclm = 0.08353125
+ pdiblc1 = 0.39
+ pdiblc2 = 0.0029407877
+ pdiblcb = -0.025
+ drout = 0.56
+ pscbe1 = 333712830.0
+ pscbe2 = 1.5000958e-8
+ pvag = 0.0
+ delta = 0.01
+ alpha0 = 5.0667189e-5
+ alpha1 = 0.0
+ beta0 = 38.266046
* BSIM4 - Rout Parameters
+ fprout = 0.0
+ pdits = 0.0
+ pditsl = 0.0
+ pditsd = 0.0
* BSIM4 - Gate Induced Drain Leakage Model Parameters
+ agidl = 7.3657e-9
+ bgidl = 1704700000.0
+ cgidl = 700.0
+ egidl = 0.69350825
* BSIM4 - Gate Leakage Current Parameters
+ aigbacc = 0.43
+ bigbacc = 0.054
+ cigbacc = 0.075
+ nigbacc = 1.0
+ aigbinv = 0.35
+ bigbinv = 0.03
+ cigbinv = 0.006
+ eigbinv = 1.1
+ nigbinv = 3.0
+ aigc = 0.43
+ bigc = 0.054
+ cigc = 0.075
+ nigc = 1.0
+ aigsd = 0.43
+ bigsd = 0.054
+ cigsd = 0.075
+ dlcig = 0.0
+ poxedge = 1.0
+ pigcd = 1.0
+ ntox = 1.0
+ toxref = 1.175e-8
* Temperature Effects Parameters
+ kt1 = -0.57573
+ kt2 = -0.019032
+ at = 430000.0
+ ute = -1.3864
+ ua1 = 7.0656e-10
+ ub1 = -3.145e-18
+ uc1 = -1.092e-10
+ kt1l = 0.0
+ prt = 0.0
* BSIM4 - High Speed RF Model Parameters
+ xrcrg1 = 12.0
+ xrcrg2 = 1.0
+ rbpb = 50.0
+ rbpd = 50.0
+ rbps = 50.0
+ rbdb = 50.0
+ rbsb = 50.0
+ gbmin = 1.0e-12
* BSIM4 - Flicker and Thermal Noise Parameters
+ noia = 3.0e+40
+ noib = 8.5300000000000003e+24
+ noic = 84000000.0
+ em = 41000000.0
+ af = 1.0
+ ef = 0.88
+ kf = 0.0
+ ntnoi = 1.0
* BSIM4 - Layout Dependent Parasitic Model Parameters
+ dmcg = 0.0
+ dmcgt = 0.0
+ dmdg = 0.0
+ xgw = 0.0
+ xgl = 0.0
+ ngcon = 1.0
* Diode DC IV Parameters
* BSIM4 - Diode DC IV parameters
+ diomod = 1.0
+ njs = 1.3632
+ jss = 2.1483e-5
+ jsws = 4.02e-12
+ xtis = 10.0
+ bvs = 12.69
+ xjbvs = 1.0
+ ijthsrev = 0.1
+ ijthsfwd = 0.1
* Diode and FET Capacitance Parameters
+ tpb = 0.001671
+ tpbsw = 0.0
+ tpbswg = 0.0
+ tcj = 0.00096
+ tcjsw = 3.0e-5
+ tcjswg = 0.0
+ cgdo = 2.36876351e-10
+ cgso = 2.36876351e-10
+ cgbo = 0.0
+ capmod = 2.0
+ xpart = 0.0
+ cgsl = 1.19869905e-11
+ cgdl = 1.19869905e-11
+ cf = 1.2e-11
+ clc = 1.0e-7
+ cle = 0.6
+ dlc = 3.28555e-8
+ dwc = 2.252e-8
+ vfbcv = -0.1446893
+ acde = 0.401
+ moin = 15.773
+ noff = 4.0
+ voffcv = 0.0
+ ngate = 1.0e+23
+ lwc = 0.0
+ llc = 0.0
+ lwlc = 0.0
+ wlc = 0.0
+ wwc = 0.0
+ wwlc = 0.0
* BSIM4 - FET and Diode capacitance parameters
+ ckappas = 0.6
+ cjs = 0.000818818773
+ mjs = 0.33956
+ pbs = 0.6587
+ cjsws = 1.040674614e-10
+ mjsws = 0.24676
+ pbsws = 1.0
+ cjswgs = 1.539132e-10
+ mjswgs = 0.81
+ pbswgs = 3.0
* Stress Parameters
+ saref = 3.0e-6
+ sbref = 3.0e-6
+ wlod = {0+sky130_fd_pr__pfet_g5v0d10v5__wlod_diff}
+ kvth0 = {0+sky130_fd_pr__pfet_g5v0d10v5__kvth0_diff}
+ lkvth0 = {0+sky130_fd_pr__pfet_g5v0d10v5__lkvth0_diff}
+ wkvth0 = {0+sky130_fd_pr__pfet_g5v0d10v5__wkvth0_diff}
+ pkvth0 = 0.0
+ llodvth = 0.0
+ wlodvth = 1.0
+ stk2 = 0.0
+ lodk2 = 1.0
+ lodeta0 = 1.0
+ ku0 = {0+sky130_fd_pr__pfet_g5v0d10v5__ku0_diff}
+ lku0 = {0+sky130_fd_pr__pfet_g5v0d10v5__lku0_diff}
+ wku0 = {0+sky130_fd_pr__pfet_g5v0d10v5__wku0_diff}
+ pku0 = 0.0
+ llodku0 = 0.0
+ wlodku0 = 1.0
+ kvsat = {0+sky130_fd_pr__pfet_g5v0d10v5__kvsat_diff}
+ steta0 = 0.0
+ tku0 = 0.0
.model sky130_fd_pr__pfet_g5v0d10v5__model.1 pmos
* DC IV MOS Parameters
+ lmin = 8e-06 lmax = 2.0e-05 wmin = 2.0e-05 wmax = 1.0e-4
+ level = 54.0
+ tnom = 30.0
+ version = 4.5
+ toxm = 1.175e-8
+ xj = 1.5e-7
+ lln = 1.0
+ lwn = 1.0
+ wln = 1.0
+ wwn = 1.0
+ lint = 3.32475e-8
+ ll = 0.0
+ lw = 0.0
+ lwl = 0.0
+ wint = 3.4797e-8
+ wl = 0.0
+ ww = 0.0
+ wwl = 0.0
+ xl = 0.0
+ xw = 0.0
+ mobmod = 0.0
+ binunit = 2.0
+ dwg = -4.7338e-9
+ dwb = 0.0
* BSIM4 - Model Selectors
+ igcmod = 0.0
+ igbmod = 0.0
+ rgatemod = 0.0
+ rbodymod = 1.0
+ trnqsmod = 0.0
+ acnqsmod = 0.0
+ fnoimod = 1.0
+ tnoimod = 1.0
+ permod = 1.0
+ geomod = 0.0
+ rdsmod = 0.0
+ tempmod = 0.0
+ lintnoi = 0.0
+ vfbsdoff = 0.0
+ lambda = 0.0
+ vtl = 0.0
+ lc = 5.0e-9
+ xn = 3.0
+ rnoia = 0.577
+ rnoib = 0.37
+ tnoia = 1.5
+ tnoib = 3.5
* BSIM4 - Process Parameters
+ epsrox = 3.9
+ toxe = {1.22435e-08+sky130_fd_pr__pfet_g5v0d10v5__toxe_slope_spectre*(1.22435e-08*(sky130_fd_pr__pfet_g5v0d10v5__toxe_slope/sqrt(l*w*mult)))}
+ dtox = 0.0
+ ndep = 1.7000000000000000e+17
+ nsd = 1.0e+20
+ rshg = 0.1
+ rsh = 1.0
* Threshold Voltage Parameters
+ vth0 = {-1.042752+sky130_fd_pr__pfet_g5v0d10v5__vth0_slope_spectre*(sky130_fd_pr__pfet_g5v0d10v5__vth0_slope/sqrt(l*w*mult))}
+ k1 = 0.59521
+ k2 = 0.0283168
+ k3 = -2.2405
+ dvt0 = 4.657
+ dvt1 = 0.34864
+ dvt2 = -0.030206
+ dvt0w = -2.2
+ dvt1w = 1016300.0
+ dvt2w = 0.0
+ w0 = 0.0
+ k3b = -0.172
* NEW BSIM4 Parameters for Level 54
+ phin = 0.0
+ lpe0 = 0.0
+ lpeb = 0.0
+ vbm = -3.0
+ dvtp0 = 0.0
+ dvtp1 = 0.0
* Mobility Parameters
+ vsat = 200000.0
+ ua = 2.7086332e-9
+ ub = -4.1451e-19
+ uc = -3.9972e-11
+ rdsw = 788.47
+ prwb = 0.053538
+ prwg = 0.0
+ wr = 1.0
+ u0 = 0.0204141
+ a0 = 0.909575
+ keta = -0.0079259
+ a1 = 0.0
+ a2 = 0.5
+ ags = 0.120633
+ b0 = 0.0
+ b1 = 0.0
* BSIM4 - Mobility Parameters
+ eu = 1.67
+ rdswmin = 0.0
+ rdw = 0.0
+ rdwmin = 0.0
+ rsw = 0.0
+ rswmin = 0.0
* Subthreshold Current Parameters
+ voff = {-0.093204657+sky130_fd_pr__pfet_g5v0d10v5__voff_slope_spectre*(sky130_fd_pr__pfet_g5v0d10v5__voff_slope/sqrt(l*w*mult))}
+ nfactor = {1.72595+sky130_fd_pr__pfet_g5v0d10v5__nfactor_slope_spectre*(sky130_fd_pr__pfet_g5v0d10v5__nfactor_slope/sqrt(l*w*mult))}
+ up = 0.0
+ ud = 0.0
+ lp = 1.0
+ tvfbsdoff = 0.0
+ tvoff = 0.0
+ cit = 1.0e-5
+ cdsc = 0.0
+ cdscb = 0.0
+ cdscd = 0.0
+ eta0 = 0.08
+ etab = -0.07
+ dsub = 0.56
* BSIM4 - Sub-threshold parameters
+ voffl = 0.0
+ minv = 0.0
* Rout Parameters
+ pclm = 0.08353125
+ pdiblc1 = 0.39
+ pdiblc2 = 0.0029407877
+ pdiblcb = -0.025
+ drout = 0.56
+ pscbe1 = 333712830.0
+ pscbe2 = 1.5000958e-8
+ pvag = 0.0
+ delta = 0.01
+ alpha0 = 5.0667189e-5
+ alpha1 = 0.0
+ beta0 = 38.266046
* BSIM4 - Rout Parameters
+ fprout = 0.0
+ pdits = 0.0
+ pditsl = 0.0
+ pditsd = 0.0
* BSIM4 - Gate Induced Drain Leakage Model Parameters
+ agidl = 7.3657e-9
+ bgidl = 1704700000.0
+ cgidl = 700.0
+ egidl = 0.69350825
* BSIM4 - Gate Leakage Current Parameters
+ aigbacc = 0.43
+ bigbacc = 0.054
+ cigbacc = 0.075
+ nigbacc = 1.0
+ aigbinv = 0.35
+ bigbinv = 0.03
+ cigbinv = 0.006
+ eigbinv = 1.1
+ nigbinv = 3.0
+ aigc = 0.43
+ bigc = 0.054
+ cigc = 0.075
+ nigc = 1.0
+ aigsd = 0.43
+ bigsd = 0.054
+ cigsd = 0.075
+ dlcig = 0.0
+ poxedge = 1.0
+ pigcd = 1.0
+ ntox = 1.0
+ toxref = 1.175e-8
* Temperature Effects Parameters
+ kt1 = -0.57573
+ kt2 = -0.019032
+ at = 430000.0
+ ute = -1.3864
+ ua1 = 7.0656e-10
+ ub1 = -3.145e-18
+ uc1 = -1.092e-10
+ kt1l = 0.0
+ prt = 0.0
* BSIM4 - High Speed RF Model Parameters
+ xrcrg1 = 12.0
+ xrcrg2 = 1.0
+ rbpb = 50.0
+ rbpd = 50.0
+ rbps = 50.0
+ rbdb = 50.0
+ rbsb = 50.0
+ gbmin = 1.0e-12
* BSIM4 - Flicker and Thermal Noise Parameters
+ noia = 3.0e+40
+ noib = 8.5300000000000003e+24
+ noic = 84000000.0
+ em = 41000000.0
+ af = 1.0
+ ef = 0.88
+ kf = 0.0
+ ntnoi = 1.0
* BSIM4 - Layout Dependent Parasitic Model Parameters
+ dmcg = 0.0
+ dmcgt = 0.0
+ dmdg = 0.0
+ xgw = 0.0
+ xgl = 0.0
+ ngcon = 1.0
* Diode DC IV Parameters
* BSIM4 - Diode DC IV parameters
+ diomod = 1.0
+ njs = 1.3632
+ jss = 2.1483e-5
+ jsws = 4.02e-12
+ xtis = 10.0
+ bvs = 12.69
+ xjbvs = 1.0
+ ijthsrev = 0.1
+ ijthsfwd = 0.1
* Diode and FET Capacitance Parameters
+ tpb = 0.001671
+ tpbsw = 0.0
+ tpbswg = 0.0
+ tcj = 0.00096
+ tcjsw = 3.0e-5
+ tcjswg = 0.0
+ cgdo = 2.36876351e-10
+ cgso = 2.36876351e-10
+ cgbo = 0.0
+ capmod = 2.0
+ xpart = 0.0
+ cgsl = 1.19869905e-11
+ cgdl = 1.19869905e-11
+ cf = 1.2e-11
+ clc = 1.0e-7
+ cle = 0.6
+ dlc = 3.28555e-8
+ dwc = 2.252e-8
+ vfbcv = -0.1446893
+ acde = 0.401
+ moin = 15.773
+ noff = 4.0
+ voffcv = 0.0
+ ngate = 1.0e+23
+ lwc = 0.0
+ llc = 0.0
+ lwlc = 0.0
+ wlc = 0.0
+ wwc = 0.0
+ wwlc = 0.0
* BSIM4 - FET and Diode capacitance parameters
+ ckappas = 0.6
+ cjs = 0.000818818773
+ mjs = 0.33956
+ pbs = 0.6587
+ cjsws = 1.040674614e-10
+ mjsws = 0.24676
+ pbsws = 1.0
+ cjswgs = 1.539132e-10
+ mjswgs = 0.81
+ pbswgs = 3.0
* Stress Parameters
+ saref = 3.0e-6
+ sbref = 3.0e-6
+ wlod = {0+sky130_fd_pr__pfet_g5v0d10v5__wlod_diff}
+ kvth0 = {0+sky130_fd_pr__pfet_g5v0d10v5__kvth0_diff}
+ lkvth0 = {0+sky130_fd_pr__pfet_g5v0d10v5__lkvth0_diff}
+ wkvth0 = {0+sky130_fd_pr__pfet_g5v0d10v5__wkvth0_diff}
+ pkvth0 = 0.0
+ llodvth = 0.0
+ wlodvth = 1.0
+ stk2 = 0.0
+ lodk2 = 1.0
+ lodeta0 = 1.0
+ ku0 = {0+sky130_fd_pr__pfet_g5v0d10v5__ku0_diff}
+ lku0 = {0+sky130_fd_pr__pfet_g5v0d10v5__lku0_diff}
+ wku0 = {0+sky130_fd_pr__pfet_g5v0d10v5__wku0_diff}
+ pku0 = 0.0
+ llodku0 = 0.0
+ wlodku0 = 1.0
+ kvsat = {0+sky130_fd_pr__pfet_g5v0d10v5__kvsat_diff}
+ steta0 = 0.0
+ tku0 = 0.0
.model sky130_fd_pr__pfet_g5v0d10v5__model.2 pmos
* DC IV MOS Parameters
+ lmin = 4e-06 lmax = 8e-06 wmin = 2.0e-05 wmax = 1.0e-4
+ level = 54.0
+ tnom = 30.0
+ version = 4.5
+ toxm = 1.175e-8
+ xj = 1.5e-7
+ lln = 1.0
+ lwn = 1.0
+ wln = 1.0
+ wwn = 1.0
+ lint = 3.32475e-8
+ ll = 0.0
+ lw = 0.0
+ lwl = 0.0
+ wint = 3.4797e-8
+ wl = 0.0
+ ww = 0.0
+ wwl = 0.0
+ xl = 0.0
+ xw = 0.0
+ mobmod = 0.0
+ binunit = 2.0
+ dwg = -4.7338e-9
+ dwb = 0.0
* BSIM4 - Model Selectors
+ igcmod = 0.0
+ igbmod = 0.0
+ rgatemod = 0.0
+ rbodymod = 1.0
+ trnqsmod = 0.0
+ acnqsmod = 0.0
+ fnoimod = 1.0
+ tnoimod = 1.0
+ permod = 1.0
+ geomod = 0.0
+ rdsmod = 0.0
+ tempmod = 0.0
+ lintnoi = 0.0
+ vfbsdoff = 0.0
+ lambda = 0.0
+ vtl = 0.0
+ lc = 5.0e-9
+ xn = 3.0
+ rnoia = 0.577
+ rnoib = 0.37
+ tnoia = 1.5
+ tnoib = 3.5
* BSIM4 - Process Parameters
+ epsrox = 3.9
+ toxe = {1.22435e-08+sky130_fd_pr__pfet_g5v0d10v5__toxe_slope_spectre*(1.22435e-08*(sky130_fd_pr__pfet_g5v0d10v5__toxe_slope/sqrt(l*w*mult)))}
+ dtox = 0.0
+ ndep = 1.7000000000000000e+17
+ nsd = 1.0e+20
+ rshg = 0.1
+ rsh = 1.0
* Threshold Voltage Parameters
+ vth0 = {-1.04718997701625+sky130_fd_pr__pfet_g5v0d10v5__vth0_slope_spectre*(sky130_fd_pr__pfet_g5v0d10v5__vth0_slope/sqrt(l*w*mult))} lvth0 = 3.52087128483047e-8
+ k1 = 0.6042078926875 lk1 = -7.13848266257453e-8
+ k2 = 0.0266281463035 lk2 = 1.33969425444512e-8
+ k3 = -2.2405
+ dvt0 = 4.657
+ dvt1 = 0.34864
+ dvt2 = -0.030206
+ dvt0w = -2.2
+ dvt1w = 1016300.0
+ dvt2w = 0.0
+ w0 = 0.0
+ k3b = -0.172
* NEW BSIM4 Parameters for Level 54
+ phin = 0.0
+ lpe0 = 0.0
+ lpeb = 0.0
+ vbm = -3.0
+ dvtp0 = 0.0
+ dvtp1 = 0.0
* Mobility Parameters
+ vsat = 298327.7912375 lvsat = -0.780084023421662
+ ua = 2.45472545225e-09 lua = 2.01437838631336e-15
+ ub = -1.530400888875e-19 lub = -2.07437284716057e-24
+ uc = -5.164762621625e-11 luc = 9.26286389647505e-17
+ rdsw = 788.47
+ prwb = 0.053538
+ prwg = 0.0
+ wr = 1.0
+ u0 = 0.019611959992875 lu0 = 6.36378175722622e-9
+ a0 = 0.9336342833325 la0 = -1.90874444614806e-7
+ keta = -0.004938304614875 lketa = -2.37021029258661e-8
+ a1 = 0.0
+ a2 = 0.5
+ ags = 0.0987686124575 lags = 1.73461227890361e-7
+ b0 = 0.0
+ b1 = 0.0
* BSIM4 - Mobility Parameters
+ eu = 1.67
+ rdswmin = 0.0
+ rdw = 0.0
+ rdwmin = 0.0
+ rsw = 0.0
+ rswmin = 0.0
* Subthreshold Current Parameters
+ voff = {-0.0947862308566375+sky130_fd_pr__pfet_g5v0d10v5__voff_slope_spectre*(sky130_fd_pr__pfet_g5v0d10v5__voff_slope/sqrt(l*w*mult))} lvoff = 1.25474240995029e-8
+ nfactor = {1.7533173610375+sky130_fd_pr__pfet_g5v0d10v5__nfactor_slope_spectre*(sky130_fd_pr__pfet_g5v0d10v5__nfactor_slope/sqrt(l*w*mult))} lnfactor = -2.17119095627811e-7
+ up = 0.0
+ ud = 0.0
+ lp = 1.0
+ tvfbsdoff = 0.0
+ tvoff = 0.0
+ cit = 1.0e-5
+ cdsc = 0.0
+ cdscb = 0.0
+ cdscd = 0.0
+ eta0 = 0.08
+ etab = -0.07
+ dsub = 0.56
* BSIM4 - Sub-threshold parameters
+ voffl = 0.0
+ minv = 0.0
* Rout Parameters
+ pclm = -0.652860044042275 lpclm = 5.84216401324086e-06 wpclm = 1.6940658945086e-21 ppclm = -9.69352280335579e-27
+ pdiblc1 = 0.39
+ pdiblc2 = 0.00456413311797212 lpdiblc2 = -1.28788189902089e-8
+ pdiblcb = -0.025
+ drout = 0.56
+ pscbe1 = 563540476.342287 lpscbe1 = -1823.33878139477
+ pscbe2 = -1.55054993344525e-08 lpscbe2 = 2.42023131795166e-13 ppscbe2 = 3.85185988877447e-34
+ pvag = 0.0
+ delta = 0.01
+ alpha0 = 7.8323760992625e-05 lalpha0 = -2.1941355218635e-10
+ alpha1 = 0.0
+ beta0 = 39.1457124405462 lbeta0 = -6.97883810440585e-6
* BSIM4 - Rout Parameters
+ fprout = 0.0
+ pdits = 0.0
+ pditsl = 0.0
+ pditsd = 0.0
* BSIM4 - Gate Induced Drain Leakage Model Parameters
+ agidl = 6.533665354875e-09 lagidl = 6.60095101727241e-15
+ bgidl = 1476950060.5 lbgidl = 1806.85528377295
+ cgidl = 934.0435475 lcgidl = -0.00185678565430899
+ egidl = 1.21251915959209 legidl = -4.11757564630338e-6
* BSIM4 - Gate Leakage Current Parameters
+ aigbacc = 0.43
+ bigbacc = 0.054
+ cigbacc = 0.075
+ nigbacc = 1.0
+ aigbinv = 0.35
+ bigbinv = 0.03
+ cigbinv = 0.006
+ eigbinv = 1.1
+ nigbinv = 3.0
+ aigc = 0.43
+ bigc = 0.054
+ cigc = 0.075
+ nigc = 1.0
+ aigsd = 0.43
+ bigsd = 0.054
+ cigsd = 0.075
+ dlcig = 0.0
+ poxedge = 1.0
+ pigcd = 1.0
+ ntox = 1.0
+ toxref = 1.175e-8
* Temperature Effects Parameters
+ kt1 = -0.5852982509125 lkt1 = 7.59097664555738e-8
+ kt2 = -0.019032
+ at = 674555.8396125 lat = -1.94018497634497
+ ute = -1.219521050375 lute = -1.32393498124468e-6
+ ua1 = 1.37964564158e-09 lua1 = -5.33992830290314e-15
+ ub1 = -2.60709319125e-18 lub1 = -4.26748635675217e-24
+ uc1 = -1.092e-10
+ kt1l = 0.0
+ prt = 0.0
* BSIM4 - High Speed RF Model Parameters
+ xrcrg1 = 12.0
+ xrcrg2 = 1.0
+ rbpb = 50.0
+ rbpd = 50.0
+ rbps = 50.0
+ rbdb = 50.0
+ rbsb = 50.0
+ gbmin = 1.0e-12
* BSIM4 - Flicker and Thermal Noise Parameters
+ noia = 3.0e+40
+ noib = 8.5300000000000003e+24
+ noic = 84000000.0
+ em = 41000000.0
+ af = 1.0
+ ef = 0.88
+ kf = 0.0
+ ntnoi = 1.0
* BSIM4 - Layout Dependent Parasitic Model Parameters
+ dmcg = 0.0
+ dmcgt = 0.0
+ dmdg = 0.0
+ xgw = 0.0
+ xgl = 0.0
+ ngcon = 1.0
* Diode DC IV Parameters
* BSIM4 - Diode DC IV parameters
+ diomod = 1.0
+ njs = 1.3632
+ jss = 2.1483e-5
+ jsws = 4.02e-12
+ xtis = 10.0
+ bvs = 12.69
+ xjbvs = 1.0
+ ijthsrev = 0.1
+ ijthsfwd = 0.1
* Diode and FET Capacitance Parameters
+ tpb = 0.001671
+ tpbsw = 0.0
+ tpbswg = 0.0
+ tcj = 0.00096
+ tcjsw = 3.0e-5
+ tcjswg = 0.0
+ cgdo = 2.36876351e-10
+ cgso = 2.36876351e-10
+ cgbo = 0.0
+ capmod = 2.0
+ xpart = 0.0
+ cgsl = 1.19869905e-11
+ cgdl = 1.19869905e-11
+ cf = 1.2e-11
+ clc = 1.0e-7
+ cle = 0.6
+ dlc = 3.28555e-8
+ dwc = 2.252e-8
+ vfbcv = -0.1446893
+ acde = 0.401
+ moin = 15.773
+ noff = 4.0
+ voffcv = 0.0
+ ngate = 1.0e+23
+ lwc = 0.0
+ llc = 0.0
+ lwlc = 0.0
+ wlc = 0.0
+ wwc = 0.0
+ wwlc = 0.0
* BSIM4 - FET and Diode capacitance parameters
+ ckappas = 0.6
+ cjs = 0.000818818773
+ mjs = 0.33956
+ pbs = 0.6587
+ cjsws = 1.040674614e-10
+ mjsws = 0.24676
+ pbsws = 1.0
+ cjswgs = 1.539132e-10
+ mjswgs = 0.81
+ pbswgs = 3.0
* Stress Parameters
+ saref = 3.0e-6
+ sbref = 3.0e-6
+ wlod = {0+sky130_fd_pr__pfet_g5v0d10v5__wlod_diff}
+ kvth0 = {0+sky130_fd_pr__pfet_g5v0d10v5__kvth0_diff}
+ lkvth0 = {0+sky130_fd_pr__pfet_g5v0d10v5__lkvth0_diff}
+ wkvth0 = {0+sky130_fd_pr__pfet_g5v0d10v5__wkvth0_diff}
+ pkvth0 = 0.0
+ llodvth = 0.0
+ wlodvth = 1.0
+ stk2 = 0.0
+ lodk2 = 1.0
+ lodeta0 = 1.0
+ ku0 = {0+sky130_fd_pr__pfet_g5v0d10v5__ku0_diff}
+ lku0 = {0+sky130_fd_pr__pfet_g5v0d10v5__lku0_diff}
+ wku0 = {0+sky130_fd_pr__pfet_g5v0d10v5__wku0_diff}
+ pku0 = 0.0
+ llodku0 = 0.0
+ wlodku0 = 1.0
+ kvsat = {0+sky130_fd_pr__pfet_g5v0d10v5__kvsat_diff}
+ steta0 = 0.0
+ tku0 = 0.0
.model sky130_fd_pr__pfet_g5v0d10v5__model.3 pmos
* DC IV MOS Parameters
+ lmin = 2e-06 lmax = 4e-06 wmin = 2.0e-05 wmax = 1.0e-4
+ level = 54.0
+ tnom = 30.0
+ version = 4.5
+ toxm = 1.175e-8
+ xj = 1.5e-7
+ lln = 1.0
+ lwn = 1.0
+ wln = 1.0
+ wwn = 1.0
+ lint = 3.32475e-8
+ ll = 0.0
+ lw = 0.0
+ lwl = 0.0
+ wint = 3.4797e-8
+ wl = 0.0
+ ww = 0.0
+ wwl = 0.0
+ xl = 0.0
+ xw = 0.0
+ mobmod = 0.0
+ binunit = 2.0
+ dwg = -4.7338e-9
+ dwb = 0.0
* BSIM4 - Model Selectors
+ igcmod = 0.0
+ igbmod = 0.0
+ rgatemod = 0.0
+ rbodymod = 1.0
+ trnqsmod = 0.0
+ acnqsmod = 0.0
+ fnoimod = 1.0
+ tnoimod = 1.0
+ permod = 1.0
+ geomod = 0.0
+ rdsmod = 0.0
+ tempmod = 0.0
+ lintnoi = 0.0
+ vfbsdoff = 0.0
+ lambda = 0.0
+ vtl = 0.0
+ lc = 5.0e-9
+ xn = 3.0
+ rnoia = 0.577
+ rnoib = 0.37
+ tnoia = 1.5
+ tnoib = 3.5
* BSIM4 - Process Parameters
+ epsrox = 3.9
+ toxe = {1.22435e-08+sky130_fd_pr__pfet_g5v0d10v5__toxe_slope_spectre*(1.22435e-08*(sky130_fd_pr__pfet_g5v0d10v5__toxe_slope/sqrt(l*w*mult)))}
+ dtox = 0.0
+ ndep = 1.7000000000000000e+17
+ nsd = 1.0e+20
+ rshg = 0.1
+ rsh = 1.0
* Threshold Voltage Parameters
+ vth0 = {-1.0234157839175+sky130_fd_pr__pfet_g5v0d10v5__vth0_slope_spectre*(sky130_fd_pr__pfet_g5v0d10v5__vth0_slope/sqrt(l*w*mult))} lvth0 = -5.83071945765935e-8
+ k1 = 0.6028041533 lk1 = -6.58632107263166e-8
+ k2 = 0.02903969505375 lk2 = 3.91110347759907e-9
+ k3 = -2.2405
+ dvt0 = 4.657
+ dvt1 = 0.34864
+ dvt2 = -0.030206
+ dvt0w = -2.2
+ dvt1w = 1016300.0
+ dvt2w = 0.0
+ w0 = 0.0
+ k3b = -0.172
* NEW BSIM4 Parameters for Level 54
+ phin = 0.0
+ lpe0 = 0.0
+ lpeb = 0.0
+ vbm = -3.0
+ dvtp0 = 0.0
+ dvtp1 = 0.0
* Mobility Parameters
+ vsat = 84348.6095 lvsat = 0.0616041578387025
+ ua = 3.26941986855725e-09 lua = -1.19022617370328e-15
+ ub = -1.702189719825e-18 lub = 4.01921497188024e-24
+ uc = -5.52637784975e-11 luc = 1.06852792043809e-16
+ rdsw = 788.47
+ prwb = 0.053538
+ prwg = 0.0
+ wr = 1.0
+ u0 = 0.02047196271525 lu0 = 2.98095674875055e-9
+ a0 = 0.8170563912675 la0 = 2.67685276712333e-7
+ keta = -0.00501267161 lketa = -2.34095799787069e-8
+ a1 = 0.0
+ a2 = 0.5
+ ags = 0.0957090064005 lags = 1.85496203613601e-7
+ b0 = 0.0
+ b1 = 0.0
* BSIM4 - Mobility Parameters
+ eu = 1.67
+ rdswmin = 0.0
+ rdw = 0.0
+ rdwmin = 0.0
+ rsw = 0.0
+ rswmin = 0.0
* Subthreshold Current Parameters
+ voff = {-0.0637375436500175+sky130_fd_pr__pfet_g5v0d10v5__voff_slope_spectre*(sky130_fd_pr__pfet_g5v0d10v5__voff_slope/sqrt(l*w*mult))} lvoff = -1.09582742271173e-7
+ nfactor = {2.1038921265675+sky130_fd_pr__pfet_g5v0d10v5__nfactor_slope_spectre*(sky130_fd_pr__pfet_g5v0d10v5__nfactor_slope/sqrt(l*w*mult))} lnfactor = -1.59610668871389e-6
+ up = 0.0
+ ud = 0.0
+ lp = 1.0
+ tvfbsdoff = 0.0
+ tvoff = 0.0
+ cit = 1.0e-5
+ cdsc = 0.0
+ cdscb = 0.0
+ cdscd = 0.0
+ eta0 = 0.0183211905 leta0 = 2.42613905562298e-7
+ etab = -0.12306697823 letab = 2.08739224202596e-7
+ dsub = 0.817977904625 ldsub = -1.01475737773196e-6
* BSIM4 - Sub-threshold parameters
+ voffl = 0.0
+ minv = 0.0
* Rout Parameters
+ pclm = 1.05151476838812 lpclm = -8.62002833328182e-7
+ pdiblc1 = 0.5839957106185 lpdiblc1 = -7.63083097696423e-7
+ pdiblc2 = -0.00116412829032 lpdiblc2 = 9.65332590061517e-09 ppdiblc2 = -2.52435489670724e-29
+ pdiblcb = 0.1683505 lpdiblcb = -7.605451585025e-07 ppdiblcb = -4.03896783473158e-28
+ drout = 0.1346289 ldrout = 1.6731993487055e-6
+ pscbe1 = -159424727.08145 lpscbe1 = 1020.44846109852 ppscbe1 = -1.73472347597681e-18
+ pscbe2 = 7.64564645311875e-08 lpscbe2 = -1.19709712880149e-13
+ pvag = 0.0
+ delta = 0.01
+ alpha0 = 4.43365799732225e-05 lalpha0 = -8.57248057106256e-11
+ alpha1 = -9.667525e-11 lalpha1 = 3.8027257925125e-16
+ beta0 = 70.6002512545225 lbeta0 = -0.000130705423801876
* BSIM4 - Rout Parameters
+ fprout = 0.0
+ pdits = 0.0
+ pditsl = 0.0
+ pditsd = 0.0
* BSIM4 - Gate Induced Drain Leakage Model Parameters
+ agidl = 9.2096819305e-09 lagidl = -3.9251735630314e-15
+ bgidl = 2628688140.5 lbgidl = -2723.51221259745
+ cgidl = 455.667771125 lcgidl = 2.49078539409564e-5
+ egidl = -1.60756773472605 legidl = 6.97525025293149e-06 wegidl = -3.3881317890172e-21
* BSIM4 - Gate Leakage Current Parameters
+ aigbacc = 0.43
+ bigbacc = 0.054
+ cigbacc = 0.075
+ nigbacc = 1.0
+ aigbinv = 0.35
+ bigbinv = 0.03
+ cigbinv = 0.006
+ eigbinv = 1.1
+ nigbinv = 3.0
+ aigc = 0.43
+ bigc = 0.054
+ cigc = 0.075
+ nigc = 1.0
+ aigsd = 0.43
+ bigsd = 0.054
+ cigsd = 0.075
+ dlcig = 0.0
+ poxedge = 1.0
+ pigcd = 1.0
+ ntox = 1.0
+ toxref = 1.175e-8
* Temperature Effects Parameters
+ kt1 = -0.5669667525 lkt1 = 3.8027257925123e-9
+ kt2 = -0.019032
+ at = 210805.618775 lat = -0.116021163929556
+ ute = -1.70701006525 lute = 5.93605496211202e-7
+ ua1 = -4.9057671776e-10 lua1 = 2.01660069867255e-15 wua1 = -5.91645678915759e-31 pua1 = 1.1284745767894e-36
+ ub1 = -3.72032584825e-18 lub1 = 1.11419865720615e-25
+ uc1 = -1.092e-10
+ kt1l = 0.0
+ prt = 0.0
* BSIM4 - High Speed RF Model Parameters
+ xrcrg1 = 12.0
+ xrcrg2 = 1.0
+ rbpb = 50.0
+ rbpd = 50.0
+ rbps = 50.0
+ rbdb = 50.0
+ rbsb = 50.0
+ gbmin = 1.0e-12
* BSIM4 - Flicker and Thermal Noise Parameters
+ noia = 3.0e+40
+ noib = 8.5300000000000003e+24
+ noic = 84000000.0
+ em = 41000000.0
+ af = 1.0
+ ef = 0.88
+ kf = 0.0
+ ntnoi = 1.0
* BSIM4 - Layout Dependent Parasitic Model Parameters
+ dmcg = 0.0
+ dmcgt = 0.0
+ dmdg = 0.0
+ xgw = 0.0
+ xgl = 0.0
+ ngcon = 1.0
* Diode DC IV Parameters
* BSIM4 - Diode DC IV parameters
+ diomod = 1.0
+ njs = 1.3632
+ jss = 2.1483e-5
+ jsws = 4.02e-12
+ xtis = 10.0
+ bvs = 12.69
+ xjbvs = 1.0
+ ijthsrev = 0.1
+ ijthsfwd = 0.1
* Diode and FET Capacitance Parameters
+ tpb = 0.001671
+ tpbsw = 0.0
+ tpbswg = 0.0
+ tcj = 0.00096
+ tcjsw = 3.0e-5
+ tcjswg = 0.0
+ cgdo = 2.36876351e-10
+ cgso = 2.36876351e-10
+ cgbo = 0.0
+ capmod = 2.0
+ xpart = 0.0
+ cgsl = 1.19869905e-11
+ cgdl = 1.19869905e-11
+ cf = 1.2e-11
+ clc = 1.0e-7
+ cle = 0.6
+ dlc = 3.28555e-8
+ dwc = 2.252e-8
+ vfbcv = -0.1446893
+ acde = 0.401
+ moin = 15.773
+ noff = 4.0
+ voffcv = 0.0
+ ngate = 1.0e+23
+ lwc = 0.0
+ llc = 0.0
+ lwlc = 0.0
+ wlc = 0.0
+ wwc = 0.0
+ wwlc = 0.0
* BSIM4 - FET and Diode capacitance parameters
+ ckappas = 0.6
+ cjs = 0.000818818773
+ mjs = 0.33956
+ pbs = 0.6587
+ cjsws = 1.040674614e-10
+ mjsws = 0.24676
+ pbsws = 1.0
+ cjswgs = 1.539132e-10
+ mjswgs = 0.81
+ pbswgs = 3.0
* Stress Parameters
+ saref = 3.0e-6
+ sbref = 3.0e-6
+ wlod = {0+sky130_fd_pr__pfet_g5v0d10v5__wlod_diff}
+ kvth0 = {0+sky130_fd_pr__pfet_g5v0d10v5__kvth0_diff}
+ lkvth0 = {0+sky130_fd_pr__pfet_g5v0d10v5__lkvth0_diff}
+ wkvth0 = {0+sky130_fd_pr__pfet_g5v0d10v5__wkvth0_diff}
+ pkvth0 = 0.0
+ llodvth = 0.0
+ wlodvth = 1.0
+ stk2 = 0.0
+ lodk2 = 1.0
+ lodeta0 = 1.0
+ ku0 = {0+sky130_fd_pr__pfet_g5v0d10v5__ku0_diff}
+ lku0 = {0+sky130_fd_pr__pfet_g5v0d10v5__lku0_diff}
+ wku0 = {0+sky130_fd_pr__pfet_g5v0d10v5__wku0_diff}
+ pku0 = 0.0
+ llodku0 = 0.0
+ wlodku0 = 1.0
+ kvsat = {0+sky130_fd_pr__pfet_g5v0d10v5__kvsat_diff}
+ steta0 = 0.0
+ tku0 = 0.0
.model sky130_fd_pr__pfet_g5v0d10v5__model.4 pmos
* DC IV MOS Parameters
+ lmin = 1e-06 lmax = 2e-06 wmin = 2.0e-05 wmax = 1.0e-4
+ level = 54.0
+ tnom = 30.0
+ version = 4.5
+ toxm = 1.175e-8
+ xj = 1.5e-7
+ lln = 1.0
+ lwn = 1.0
+ wln = 1.0
+ wwn = 1.0
+ lint = 3.32475e-8
+ ll = 0.0
+ lw = 0.0
+ lwl = 0.0
+ wint = 3.4797e-8
+ wl = 0.0
+ ww = 0.0
+ wwl = 0.0
+ xl = 0.0
+ xw = 0.0
+ mobmod = 0.0
+ binunit = 2.0
+ dwg = -4.7338e-9
+ dwb = 0.0
* BSIM4 - Model Selectors
+ igcmod = 0.0
+ igbmod = 0.0
+ rgatemod = 0.0
+ rbodymod = 1.0
+ trnqsmod = 0.0
+ acnqsmod = 0.0
+ fnoimod = 1.0
+ tnoimod = 1.0
+ permod = 1.0
+ geomod = 0.0
+ rdsmod = 0.0
+ tempmod = 0.0
+ lintnoi = 0.0
+ vfbsdoff = 0.0
+ lambda = 0.0
+ vtl = 0.0
+ lc = 5.0e-9
+ xn = 3.0
+ rnoia = 0.577
+ rnoib = 0.37
+ tnoia = 1.5
+ tnoib = 3.5
* BSIM4 - Process Parameters
+ epsrox = 3.9
+ toxe = {1.22435e-08+sky130_fd_pr__pfet_g5v0d10v5__toxe_slope_spectre*(1.22435e-08*(sky130_fd_pr__pfet_g5v0d10v5__toxe_slope/sqrt(l*w*mult)))}
+ dtox = 0.0
+ ndep = 1.7000000000000000e+17
+ nsd = 1.0e+20
+ rshg = 0.1
+ rsh = 1.0
* Threshold Voltage Parameters
+ vth0 = {-1.0736423575+sky130_fd_pr__pfet_g5v0d10v5__vth0_slope_spectre*(sky130_fd_pr__pfet_g5v0d10v5__vth0_slope/sqrt(l*w*mult))} lvth0 = 3.88061365780371e-8
+ k1 = 0.55879817175 lk1 = 1.92225746305162e-8
+ k2 = 0.0262936897075 lk2 = 9.22051854460022e-9
+ k3 = -2.2405
+ dvt0 = 4.657
+ dvt1 = 0.34864
+ dvt2 = -0.030206
+ dvt0w = -2.2
+ dvt1w = 1016300.0
+ dvt2w = 0.0
+ w0 = 0.0
+ k3b = -0.172
* NEW BSIM4 Parameters for Level 54
+ phin = 0.0
+ lpe0 = 0.0
+ lpeb = 0.0
+ vbm = -3.0
+ dvtp0 = 0.0
+ dvtp1 = 0.0
* Mobility Parameters
+ vsat = 179987.995105 lvsat = -0.123315072425493
+ ua = 3.545625841344e-09 lua = -1.72427180311633e-15
+ ub = -3.27932723999998e-20 lub = 7.91428593801762e-25
+ uc = 5.465298373e-13 luc = -1.05671817306874e-18
+ rdsw = 788.47
+ prwb = 0.053538
+ prwg = 0.0
+ wr = 1.0
+ u0 = 0.024960961986 lu0 = -5.69854578624093e-9
+ a0 = 1.078927230585 la0 = -2.3864330046225e-7
+ keta = 0.04594012976 lketa = -1.21927076191609e-07 wketa = -1.05879118406788e-22 pketa = 1.0097419586829e-28
+ a1 = 0.0
+ a2 = 0.5
+ ags = -0.268103665696 lags = 8.88929824175545e-7
+ b0 = 0.0
+ b1 = 0.0
* BSIM4 - Mobility Parameters
+ eu = 1.67
+ rdswmin = 0.0
+ rdw = 0.0
+ rdwmin = 0.0
+ rsw = 0.0
+ rswmin = 0.0
* Subthreshold Current Parameters
+ voff = {-0.160234189396785+sky130_fd_pr__pfet_g5v0d10v5__voff_slope_spectre*(sky130_fd_pr__pfet_g5v0d10v5__voff_slope/sqrt(l*w*mult))} lvoff = 7.69940047634308e-8
+ nfactor = {1.017033070615+sky130_fd_pr__pfet_g5v0d10v5__nfactor_slope_spectre*(sky130_fd_pr__pfet_g5v0d10v5__nfactor_slope/sqrt(l*w*mult))} lnfactor = 5.05340730265545e-7
+ up = 0.0
+ ud = 0.0
+ lp = 1.0
+ tvfbsdoff = 0.0
+ tvoff = 0.0
+ cit = 1.4667525e-05 lcit = -9.024682925125e-12
+ cdsc = 0.0
+ cdscb = 0.0
+ cdscd = 0.0
+ eta0 = 0.278011282483295 leta0 = -2.59498185737863e-7
+ etab = -0.02921139354 letab = 2.72689819265577e-8
+ dsub = 0.0588309099500002 ldsub = 4.53057132207125e-7
* BSIM4 - Sub-threshold parameters
+ voffl = 0.0
+ minv = 0.0
* Rout Parameters
+ pclm = 0.0480063634240999 lpclm = 1.07828568521179e-6
+ pdiblc1 = -0.00688436326899999 lpdiblc1 = 3.79386479565428e-7
+ pdiblc2 = 0.0059964470822665 lpdiblc2 = -4.19168238515769e-9
+ pdiblcb = -0.411701 lpdiblcb = 3.60987317005e-07 wpdiblcb = -1.6940658945086e-21
+ drout = 1.55012438231795 ldrout = -1.06366824383367e-6
+ pscbe1 = 432633596.7114 lpscbe1 = -124.299268246575
+ pscbe2 = 1.453248063888e-08 lpscbe2 = 2.06195955473267e-17
+ pvag = 0.0
+ delta = 0.01
+ alpha0 = -6.3303731508805e-05 lalpha0 = 1.22398274741432e-10 walpha0 = -7.8767761386318e-26 palpha0 = 5.72941588963667e-32
+ alpha1 = 1.933505e-10 lalpha1 = -1.804936585025e-16