* Copyright 2020 The SkyWater PDK Authors
*
* Licensed under the Apache License, Version 2.0 (the "License");
* you may not use this file except in compliance with the License.
* You may obtain a copy of the License at
*
*     https://www.apache.org/licenses/LICENSE-2.0
*
* Unless required by applicable law or agreed to in writing, software
* distributed under the License is distributed on an "AS IS" BASIS,
* WITHOUT WARRANTIES OR CONDITIONS OF ANY KIND, either express or implied.
* See the License for the specific language governing permissions and
* limitations under the License.

* SKY130 Spice File.
.param sky130_fd_pr__nfet_01v8_lvt__toxe_slope_spectre = 0.0
.param sky130_fd_pr__nfet_01v8_lvt__vth0_slope_spectre = 0.0
.param sky130_fd_pr__nfet_01v8_lvt__voff_slope_spectre = 0.0
.param sky130_fd_pr__nfet_01v8_lvt__nfactor_slope_spectre = 0.0
* statistics {
*   process {
*   }
*   mismatch {
*     vary sky130_fd_pr__nfet_01v8_lvt__toxe_slope_spectre dist=gauss std = 1.0
*     vary sky130_fd_pr__nfet_01v8_lvt__vth0_slope_spectre dist=gauss std = 1.0
*     vary sky130_fd_pr__nfet_01v8_lvt__voff_slope_spectre dist=gauss std = 1.0
*     vary sky130_fd_pr__nfet_01v8_lvt__nfactor_slope_spectre dist=gauss std = 1.0
*   }
* }
.subckt  sky130_fd_pr__nfet_01v8_lvt d g s b
+ 
.param  l = 1 w = 1 ad = 0 as = 0 pd = 0 ps = 0 nrd = 0 nrs = 0 sa = 0 sb = 0 sd = 0 mult = 1 nf = 1.0
msky130_fd_pr__nfet_01v8_lvt d g s b sky130_fd_pr__nfet_01v8_lvt__model l = {l} w = {w} ad = {ad} as = {as} pd = {pd} ps = {ps} nrd = {nrd} nrs = {nrs} sa = {sa} sb = {sb} sd = {sd} nf = {nf}
.model sky130_fd_pr__nfet_01v8_lvt__model.0 nmos
* DC IV MOS Parameters
+ lmin = 8e-06 lmax = 1.0e-04 wmin = 7e-06 wmax = 1.0e-4
+ level = 54.0
+ tnom = 30.0
+ version = 4.5
+ toxm = 4.148e-9
+ xj = 1.5e-7
+ lln = 1.0
+ lwn = 1.0
+ wln = 1.0
+ wwn = 1.0
+ lint = -5.3e-9
+ ll = 0.0
+ lw = 0.0
+ lwl = 0.0
+ wint = 5.8175e-8
+ wl = 0.0
+ ww = 0.0
+ wwl = 0.0
+ xl = 0.0
+ xw = 0.0
+ mobmod = 0.0
+ binunit = 2.0
+ dwg = -1.33e-8
+ dwb = -1.08e-8
* BSIM4 - Model Selectors
+ igcmod = 0.0
+ igbmod = 0.0
+ rgatemod = 0.0
+ rbodymod = 1.0
+ trnqsmod = 0.0
+ acnqsmod = 0.0
+ fnoimod = 1.0
+ tnoimod = 1.0
+ permod = 1.0
+ geomod = 0.0
+ rdsmod = 0.0
+ tempmod = 0.0
+ lintnoi = -3.0e-7
+ vfbsdoff = 0.0
+ lambda = 0.0
+ vtl = 0.0
+ lc = 0.0
+ xn = 0.0
+ rnoia = 0.912
+ rnoib = 0.26
+ tnoia = 25000000.0
+ tnoib = 9900000.0
* BSIM4 - Process Parameters
+ epsrox = 3.9
+ toxe = {4.363696e-09+sky130_fd_pr__nfet_01v8_lvt__toxe_slope_spectre*(4.363696e-09*(sky130_fd_pr__nfet_01v8_lvt__toxe_slope/sqrt(l*w*mult)))}
+ dtox = 0.0
+ ndep = 1.7000000000000000e+17
+ nsd = 1.0e+20
+ rshg = 0.1
+ rsh = 1.0
* Threshold Voltage Parameters
+ vth0 = {0.4181113+sky130_fd_pr__nfet_01v8_lvt__vth0_slope_spectre*(sky130_fd_pr__nfet_01v8_lvt__vth0_slope/sqrt(l*w*mult))}
+ k1 = 0.47213
+ k2 = -0.0321739
+ k3 = 1.65
+ dvt0 = 0.07665
+ dvt1 = 0.1252
+ dvt2 = -0.05637
+ dvt0w = 0.0
+ dvt1w = 5300000.0
+ dvt2w = -0.032
+ w0 = 1.0e-7
+ k3b = 1.6
+ vfb = 0.0
* NEW BSIM4 Parameters for Level 54
+ phin = 0.0
+ lpe0 = 2.3802e-7
+ lpeb = -4.9152e-8
+ vbm = -3.0
+ dvtp0 = 0.0
+ dvtp1 = 0.0
* Mobility Parameters
+ vsat = 161140.0
+ ua = -1.3019497e-9
+ ub = 2.64393e-18
+ uc = 7.0152e-11
+ rdsw = 103.65
+ prwb = 0.0
+ prwg = 0.0
+ wr = 1.0
+ u0 = 0.03208538
+ a0 = 1.9632567
+ keta = 0.0
+ a1 = 0.0
+ a2 = 0.38689047
+ ags = 0.5148757
+ b0 = 0.0
+ b1 = 0.0
* BSIM4 - Mobility Parameters
+ eu = 1.67
+ rdswmin = 0.0
+ rdw = 0.0
+ rdwmin = 0.0
+ rsw = 0.0
+ rswmin = 0.0
* Subthreshold Current Parameters
+ voff = {-0.11559919+sky130_fd_pr__nfet_01v8_lvt__voff_slope_spectre*(sky130_fd_pr__nfet_01v8_lvt__voff_slope/sqrt(l*w*mult))}
+ nfactor = {1.1534679+sky130_fd_pr__nfet_01v8_lvt__nfactor_slope_spectre*(sky130_fd_pr__nfet_01v8_lvt__nfactor_slope/sqrt(l*w*mult))}
+ up = 0.0
+ ud = 0.0
+ lp = 1.0
+ tvfbsdoff = 0.0
+ tvoff = 0.0
+ cit = 1.0e-5
+ cdsc = 3.8556e-37
+ cdscb = -0.00011484
+ cdscd = 4.7984e-6
+ eta0 = 0.08
+ etab = -0.07
+ dsub = 0.56
* BSIM4 - Sub-threshold parameters
+ voffl = 0.0
+ minv = 0.0
* Rout Parameters
+ pclm = 0.2
+ pdiblc1 = 0.39
+ pdiblc2 = 0.0047977
+ pdiblcb = 0.0
+ drout = 3.4946
+ pscbe1 = 450000000.0
+ pscbe2 = 1.0e-8
+ pvag = 0.0
+ delta = 0.01
+ alpha0 = 8.4345657e-5
+ alpha1 = 0.0
+ beta0 = 17.822982
* BSIM4 - Rout Parameters
+ fprout = 0.0
+ pdits = 1.4427e-15
+ pditsl = 0.0
+ pditsd = 0.0
* BSIM4 - Gate Induced Drain Leakage Model Parameters
+ agidl = 0.0
+ bgidl = 2300000000.0
+ cgidl = 0.5
+ egidl = 0.8
* BSIM4 - Gate Leakage Current Parameters
+ aigbacc = 1.0
+ bigbacc = 0.0
+ cigbacc = 0.0
+ nigbacc = 1.0
+ aigbinv = 0.35
+ bigbinv = 0.03
+ cigbinv = 0.006
+ eigbinv = 1.1
+ nigbinv = 3.0
+ aigc = 0.43
+ bigc = 0.054
+ cigc = 0.075
+ nigc = 1.0
+ aigsd = 0.43
+ bigsd = 0.054
+ cigsd = 0.075
+ dlcig = 0.0
+ poxedge = 1.0
+ pigcd = 1.0
+ ntox = 1.0
+ toxref = 4.148e-9
* Temperature Effects Parameters
+ kt1 = -0.25364
+ kt2 = -0.034423
+ at = 333080.0
+ ute = -1.0777
+ ua1 = 2.6823e-9
+ ub1 = -2.4433e-18
+ uc1 = -1.9223e-11
+ kt1l = 0.0
+ prt = 0.0
* BSIM4 - High Speed RF Model Parameters
+ xrcrg1 = 12.0
+ xrcrg2 = 1.0
+ rbpb = 50.0
+ rbpd = 50.0
+ rbps = 50.0
+ rbdb = 50.0
+ rbsb = 50.0
+ gbmin = 1.0e-12
* BSIM4 - Flicker and Thermal Noise Parameters
+ noia = 9.0e+41
+ noib = 1.0e+27
+ noic = 800000000000.0
+ em = 41000000.0
+ af = 1.0
+ ef = 1.2
+ kf = 0.0
+ ntnoi = 1.0
* BSIM4 - Layout Dependent Parasitic Model Parameters
+ dmcg = 0.0
+ dmcgt = 0.0
+ dmdg = 0.0
+ xgw = 0.0
+ xgl = 0.0
+ ngcon = 1.0
* Diode DC IV Parameters
* BSIM4 - Diode DC IV parameters
+ diomod = 1.0
+ njs = 1.2928
+ jss = 0.00275
+ jsws = 6.0e-10
+ xtis = 2.0
+ bvs = 11.9
+ xjbvs = 1.0
+ ijthsrev = 0.1
+ ijthsfwd = 0.1
* Diode and FET Capacitance Parameters
+ tpb = 0.0012287
+ tpbsw = 0.0
+ tpbswg = 0.0
+ tcj = 0.000792
+ tcjsw = 1.0e-5
+ tcjswg = 0.0
+ cgdo = 2.537795114e-10
+ cgso = 2.537795114e-10
+ cgbo = 1.0e-14
+ capmod = 2.0
+ xpart = 0.0
+ cgsl = 2.45065e-11
+ cgdl = 2.45065e-11
+ cf = 1.0e-14
+ clc = 1.0e-7
+ cle = 0.6
+ dlc = -2.164e-9
+ dwc = 5.8175e-8
+ vfbcv = -1.0
+ acde = 0.38008
+ moin = 23.81
+ noff = 3.8661
+ voffcv = -0.16994
+ ngate = 1.0e+23
+ lwc = 0.0
+ llc = 0.0
+ lwlc = 0.0
+ wlc = 0.0
+ wwc = 0.0
+ wwlc = 0.0
* BSIM4 - FET and Diode capacitance parameters
+ ckappas = 0.6
+ cjs = 0.0014211795
+ mjs = 0.42197
+ pbs = 0.7477
+ cjsws = 3.79518848e-11
+ mjsws = 0.001
+ pbsws = 0.1
+ cjswgs = 2.10922964e-10
+ mjswgs = 0.8
+ pbswgs = 0.79644
* Stress Parameters
+ saref = 3.0e-6
+ sbref = 3.0e-6
+ wlod = {0+sky130_fd_pr__nfet_01v8_lvt__wlod_diff}
+ kvth0 = {0+sky130_fd_pr__nfet_01v8_lvt__kvth0_diff}
+ lkvth0 = {0+sky130_fd_pr__nfet_01v8_lvt__lkvth0_diff}
+ wkvth0 = {0+sky130_fd_pr__nfet_01v8_lvt__wkvth0_diff}
+ pkvth0 = 0.0
+ llodvth = 0.0
+ wlodvth = 1.0
+ stk2 = 0.0
+ lodk2 = 1.0
+ lodeta0 = 1.0
+ ku0 = {0+sky130_fd_pr__nfet_01v8_lvt__ku0_diff}
+ lku0 = {0+sky130_fd_pr__nfet_01v8_lvt__lku0_diff}
+ wku0 = {0+sky130_fd_pr__nfet_01v8_lvt__wku0_diff}
+ pku0 = 0.0
+ llodku0 = 0.0
+ wlodku0 = 1.0
+ kvsat = {0+sky130_fd_pr__nfet_01v8_lvt__kvsat_diff}
+ steta0 = 0.0
+ tku0 = 0.0
.model sky130_fd_pr__nfet_01v8_lvt__model.1 nmos
* DC IV MOS Parameters
+ lmin = 4e-06 lmax = 8e-06 wmin = 7e-06 wmax = 1.0e-4
+ level = 54.0
+ tnom = 30.0
+ version = 4.5
+ toxm = 4.148e-9
+ xj = 1.5e-7
+ lln = 1.0
+ lwn = 1.0
+ wln = 1.0
+ wwn = 1.0
+ lint = -5.3e-9
+ ll = 0.0
+ lw = 0.0
+ lwl = 0.0
+ wint = 5.8175e-8
+ wl = 0.0
+ ww = 0.0
+ wwl = 0.0
+ xl = 0.0
+ xw = 0.0
+ mobmod = 0.0
+ binunit = 2.0
+ dwg = -1.33e-8
+ dwb = -1.08e-8
* BSIM4 - Model Selectors
+ igcmod = 0.0
+ igbmod = 0.0
+ rgatemod = 0.0
+ rbodymod = 1.0
+ trnqsmod = 0.0
+ acnqsmod = 0.0
+ fnoimod = 1.0
+ tnoimod = 1.0
+ permod = 1.0
+ geomod = 0.0
+ rdsmod = 0.0
+ tempmod = 0.0
+ lintnoi = -3.0e-7
+ vfbsdoff = 0.0
+ lambda = 0.0
+ vtl = 0.0
+ lc = 0.0
+ xn = 0.0
+ rnoia = 0.912
+ rnoib = 0.26
+ tnoia = 25000000.0
+ tnoib = 9900000.0
* BSIM4 - Process Parameters
+ epsrox = 3.9
+ toxe = {4.363696e-09+sky130_fd_pr__nfet_01v8_lvt__toxe_slope_spectre*(4.363696e-09*(sky130_fd_pr__nfet_01v8_lvt__toxe_slope/sqrt(l*w*mult)))}
+ dtox = 0.0
+ ndep = 1.7000000000000000e+17
+ nsd = 1.0e+20
+ rshg = 0.1
+ rsh = 1.0
* Threshold Voltage Parameters
+ vth0 = {4.039508629e-01+sky130_fd_pr__nfet_01v8_lvt__vth0_slope_spectre*(sky130_fd_pr__nfet_01v8_lvt__vth0_slope2/sqrt(l*w*mult))} lvth0 = 1.134335973e-07 wvth0 = 9.747549271e-08 pvth0 = -7.808371819e-13
+ k1 = 5.494703645e-01 lk1 = -6.195427239e-07 wk1 = -5.323840001e-07 pk1 = 4.264715271e-12
+ k2 = -5.912813589e-02 lk2 = 2.159196020e-07 wk2 = 1.855435259e-07 pk2 = -1.486314969e-12
+ k3 = 1.65
+ dvt0 = 0.07665
+ dvt1 = 0.1252
+ dvt2 = -0.05637
+ dvt0w = 0.0
+ dvt1w = 5300000.0
+ dvt2w = -0.032
+ w0 = 1.0e-7
+ k3b = 1.6
+ vfb = 0.0
* NEW BSIM4 Parameters for Level 54
+ phin = 0.0
+ lpe0 = 2.3802e-7
+ lpeb = -4.9152e-8
+ vbm = -3.0
+ dvtp0 = 0.0
+ dvtp1 = 0.0
* Mobility Parameters
+ vsat = 7.304176524e+04 lvsat = 7.057197193e-01 wvsat = 6.064374137e-01 pvsat = -4.857927546e-6
+ ua = -1.340324789e-09 lua = 3.074074899e-16 wua = 2.641606831e-16 pua = -2.116085568e-21
+ ub = 2.675649026e-18 lub = -2.540884285e-25 wub = -2.183426723e-25 pub = 1.749055811e-30
+ uc = 6.984078634e-11 luc = 2.493008176e-18 wuc = 2.142285938e-18 puc = -1.716099573e-23
+ rdsw = 103.65
+ prwb = 0.0
+ prwg = 0.0
+ wr = 1.0
+ u0 = 3.162412689e-02 lu0 = 3.694914159e-09 wu0 = 3.175104968e-09 pu0 = -2.543449585e-14
+ a0 = 2.000299418e+00 la0 = -2.967343957e-07 wa0 = -2.549891048e-07 pa0 = 2.042615723e-12
+ keta = 0.0
+ a1 = 0.0
+ a2 = 0.38689047
+ ags = 5.008643009e-01 lags = 1.122397138e-07 wags = 9.644956754e-08 pags = -7.726189057e-13
+ b0 = 0.0
+ b1 = 0.0
* BSIM4 - Mobility Parameters
+ eu = 1.67
+ rdswmin = 0.0
+ rdw = 0.0
+ rdwmin = 0.0
+ rsw = 0.0
+ rswmin = 0.0
* Subthreshold Current Parameters
+ voff = {-1.120409948e-01+sky130_fd_pr__nfet_01v8_lvt__voff_slope_spectre*(sky130_fd_pr__nfet_01v8_lvt__voff_slope/sqrt(l*w*mult))} lvoff = -2.850327846e-08 wvoff = -2.449337038e-08 pvoff = 1.962065928e-13
+ nfactor = {1.261889959e+00+sky130_fd_pr__nfet_01v8_lvt__nfactor_slope_spectre*(sky130_fd_pr__nfet_01v8_lvt__nfactor_slope/sqrt(l*w*mult))} lnfactor = -8.685257477e-07 wnfactor = -7.463395080e-07 pnfactor = 5.978627263e-12
+ up = 0.0
+ ud = 0.0
+ lp = 1.0
+ tvfbsdoff = 0.0
+ tvoff = 0.0
+ cit = 1.0e-5
+ cdsc = 3.8556e-37
+ cdscb = -0.00011484
+ cdscd = 4.7984e-6
+ eta0 = 0.08
+ etab = -0.07
+ dsub = 0.56
* BSIM4 - Sub-threshold parameters
+ voffl = 0.0
+ minv = 0.0
* Rout Parameters
+ pclm = 3.416657520e-01 lpclm = -1.134827673e-06 wpclm = -9.751774541e-07 ppclm = 7.811756514e-12
+ pdiblc1 = 0.39
+ pdiblc2 = 2.870867443e-03 lpdiblc2 = 1.543508488e-08 wpdiblc2 = 1.326364093e-08 ppdiblc2 = -1.062497220e-13
+ pdiblcb = 0.0
+ drout = 3.4946
+ pscbe1 = 450000000.0
+ pscbe2 = 1.0e-8
+ pvag = 0.0
+ delta = 0.01
+ alpha0 = 1.387872744e-04 lalpha0 = -4.361100204e-10 walpha0 = -3.747570396e-10 palpha0 = 3.002028742e-15
+ alpha1 = 0.0
+ beta0 = 1.812625487e+01 lbeta0 = -2.429397649e-06 wbeta0 = -2.087624289e-06 pbeta0 = 1.672312313e-11
* BSIM4 - Rout Parameters
+ fprout = 0.0
+ pdits = 1.4427e-15
+ pditsl = 0.0
+ pditsd = 0.0
* BSIM4 - Gate Induced Drain Leakage Model Parameters
+ agidl = 0.0
+ bgidl = 2300000000.0
+ cgidl = 0.5
+ egidl = 0.8
* BSIM4 - Gate Leakage Current Parameters
+ aigbacc = 1.0
+ bigbacc = 0.0
+ cigbacc = 0.0
+ nigbacc = 1.0
+ aigbinv = 0.35
+ bigbinv = 0.03
+ cigbinv = 0.006
+ eigbinv = 1.1
+ nigbinv = 3.0
+ aigc = 0.43
+ bigc = 0.054
+ cigc = 0.075
+ nigc = 1.0
+ aigsd = 0.43
+ bigsd = 0.054
+ cigsd = 0.075
+ dlcig = 0.0
+ poxedge = 1.0
+ pigcd = 1.0
+ ntox = 1.0
+ toxref = 4.148e-9
* Temperature Effects Parameters
+ kt1 = -2.532200231e-01 lkt1 = -3.364267089e-09 wkt1 = -2.890974103e-09 pkt1 = 2.315843715e-14
+ kt2 = -3.413547734e-02 lkt2 = -2.303229007e-09 wkt2 = -1.979205347e-09 pkt2 = 1.585462235e-14
+ at = 6.184327776e+05 lat = -2.285846960e+00 wat = -1.964268648e+00 pat = 1.573497043e-5
+ ute = -9.493378244e-01 lute = -1.028258044e-06 wute = -8.836002898e-07 pute = 7.078168482e-12
+ ua1 = 2.420622075e-09 lua1 = 2.096197186e-15 wua1 = 1.801299249e-15 pua1 = -1.442948776e-20
+ ub1 = -1.549718345e-18 lub1 = -7.158125206e-24 wub1 = -6.151103360e-24 pub1 = 4.927402857e-29
+ uc1 = -1.087192054e-11 luc1 = -6.689715711e-17 wuc1 = -5.748590812e-17 puc1 = 4.604966156e-22
+ kt1l = 0.0
+ prt = 0.0
* BSIM4 - High Speed RF Model Parameters
+ xrcrg1 = 12.0
+ xrcrg2 = 1.0
+ rbpb = 50.0
+ rbpd = 50.0
+ rbps = 50.0
+ rbdb = 50.0
+ rbsb = 50.0
+ gbmin = 1.0e-12
* BSIM4 - Flicker and Thermal Noise Parameters
+ noia = 9.0e+41
+ noib = 1.0e+27
+ noic = 800000000000.0
+ em = 41000000.0
+ af = 1.0
+ ef = 1.2
+ kf = 0.0
+ ntnoi = 1.0
* BSIM4 - Layout Dependent Parasitic Model Parameters
+ dmcg = 0.0
+ dmcgt = 0.0
+ dmdg = 0.0
+ xgw = 0.0
+ xgl = 0.0
+ ngcon = 1.0
* Diode DC IV Parameters
* BSIM4 - Diode DC IV parameters
+ diomod = 1.0
+ njs = 1.2928
+ jss = 0.00275
+ jsws = 6.0e-10
+ xtis = 2.0
+ bvs = 11.9
+ xjbvs = 1.0
+ ijthsrev = 0.1
+ ijthsfwd = 0.1
* Diode and FET Capacitance Parameters
+ tpb = 0.0012287
+ tpbsw = 0.0
+ tpbswg = 0.0
+ tcj = 0.000792
+ tcjsw = 1.0e-5
+ tcjswg = 0.0
+ cgdo = 2.537795114e-10
+ cgso = 2.537795114e-10
+ cgbo = 1.0e-14
+ capmod = 2.0
+ xpart = 0.0
+ cgsl = 2.45065e-11
+ cgdl = 2.45065e-11
+ cf = 1.0e-14
+ clc = 1.0e-7
+ cle = 0.6
+ dlc = -2.164e-9
+ dwc = 5.8175e-8
+ vfbcv = -1.0
+ acde = 0.38008
+ moin = 23.81
+ noff = 3.8661
+ voffcv = -0.16994
+ ngate = 1.0e+23
+ lwc = 0.0
+ llc = 0.0
+ lwlc = 0.0
+ wlc = 0.0
+ wwc = 0.0
+ wwlc = 0.0
* BSIM4 - FET and Diode capacitance parameters
+ ckappas = 0.6
+ cjs = 0.0014211795
+ mjs = 0.42197
+ pbs = 0.7477
+ cjsws = 3.79518848e-11
+ mjsws = 0.001
+ pbsws = 0.1
+ cjswgs = 2.10922964e-10
+ mjswgs = 0.8
+ pbswgs = 0.79644
* Stress Parameters
+ saref = 3.0e-6
+ sbref = 3.0e-6
+ wlod = {0+sky130_fd_pr__nfet_01v8_lvt__wlod_diff}
+ kvth0 = {0+sky130_fd_pr__nfet_01v8_lvt__kvth0_diff}
+ lkvth0 = {0+sky130_fd_pr__nfet_01v8_lvt__lkvth0_diff}
+ wkvth0 = {0+sky130_fd_pr__nfet_01v8_lvt__wkvth0_diff}
+ pkvth0 = 0.0
+ llodvth = 0.0
+ wlodvth = 1.0
+ stk2 = 0.0
+ lodk2 = 1.0
+ lodeta0 = 1.0
+ ku0 = {0+sky130_fd_pr__nfet_01v8_lvt__ku0_diff}
+ lku0 = {0+sky130_fd_pr__nfet_01v8_lvt__lku0_diff}
+ wku0 = {0+sky130_fd_pr__nfet_01v8_lvt__wku0_diff}
+ pku0 = 0.0
+ llodku0 = 0.0
+ wlodku0 = 1.0
+ kvsat = {0+sky130_fd_pr__nfet_01v8_lvt__kvsat_diff}
+ steta0 = 0.0
+ tku0 = 0.0
.model sky130_fd_pr__nfet_01v8_lvt__model.2 nmos
* DC IV MOS Parameters
+ lmin = 2e-06 lmax = 4e-06 wmin = 7e-06 wmax = 1.0e-4
+ level = 54.0
+ tnom = 30.0
+ version = 4.5
+ toxm = 4.148e-9
+ xj = 1.5e-7
+ lln = 1.0
+ lwn = 1.0
+ wln = 1.0
+ wwn = 1.0
+ lint = -5.3e-9
+ ll = 0.0
+ lw = 0.0
+ lwl = 0.0
+ wint = 5.8175e-8
+ wl = 0.0
+ ww = 0.0
+ wwl = 0.0
+ xl = 0.0
+ xw = 0.0
+ mobmod = 0.0
+ binunit = 2.0
+ dwg = -1.33e-8
+ dwb = -1.08e-8
* BSIM4 - Model Selectors
+ igcmod = 0.0
+ igbmod = 0.0
+ rgatemod = 0.0
+ rbodymod = 1.0
+ trnqsmod = 0.0
+ acnqsmod = 0.0
+ fnoimod = 1.0
+ tnoimod = 1.0
+ permod = 1.0
+ geomod = 0.0
+ rdsmod = 0.0
+ tempmod = 0.0
+ lintnoi = -3.0e-7
+ vfbsdoff = 0.0
+ lambda = 0.0
+ vtl = 0.0
+ lc = 0.0
+ xn = 0.0
+ rnoia = 0.912
+ rnoib = 0.26
+ tnoia = 25000000.0
+ tnoib = 9900000.0
* BSIM4 - Process Parameters
+ epsrox = 3.9
+ toxe = {4.363696e-09+sky130_fd_pr__nfet_01v8_lvt__toxe_slope_spectre*(4.363696e-09*(sky130_fd_pr__nfet_01v8_lvt__toxe_slope/sqrt(l*w*mult)))}
+ dtox = 0.0
+ ndep = 1.7000000000000000e+17
+ nsd = 1.0e+20
+ rshg = 0.1
+ rsh = 1.0
* Threshold Voltage Parameters
+ vth0 = {4.321459564e-01+sky130_fd_pr__nfet_01v8_lvt__vth0_slope_spectre*(sky130_fd_pr__nfet_01v8_lvt__vth0_slope/sqrt(l*w*mult))} lvth0 = 3.543554001e-10 wvth0 = -1.949509854e-07 pvth0 = 3.919684513e-13
+ k1 = 3.594104930e-01 lk1 = 1.427113968e-07 wk1 = 1.064768000e-06 pk1 = -2.140822541e-12
+ k2 = 6.612547593e-03 lk2 = -4.773998315e-08 wk2 = -3.710870518e-07 pk2 = 7.461076263e-13
+ k3 = 1.65
+ dvt0 = 0.07665
+ dvt1 = 0.1252
+ dvt2 = -0.05637
+ dvt0w = 0.0
+ dvt1w = 5300000.0
+ dvt2w = -0.032
+ w0 = 1.0e-7
+ k3b = 1.6
+ vfb = 0.0
* NEW BSIM4 Parameters for Level 54
+ phin = 0.0
+ lpe0 = 2.3802e-7
+ lpeb = -4.9152e-8
+ vbm = -3.0
+ dvtp0 = 0.0
+ dvtp1 = 0.0
* Mobility Parameters
+ vsat = 4.535984092e+05 lvsat = -8.205407570e-01 wvsat = -1.212874827e+00 pvsat = 2.438606128e-6
+ ua = -1.302525680e-09 lua = 1.558103804e-16 wua = -5.283213661e-16 pua = 1.062242939e-21
+ ub = 2.594422390e-18 lub = 7.167911566e-26 wub = 4.366853446e-25 pub = -8.779995538e-31
+ uc = 6.796662443e-11 luc = 1.000952193e-17 wuc = -4.284571875e-18 puc = 8.614560212e-24
+ rdsw = 103.65
+ prwb = 0.0
+ prwg = 0.0
+ wr = 1.0
+ u0 = 3.076770586e-02 lu0 = 7.129676352e-09 wu0 = -6.350209935e-09 pu0 = 1.276773210e-14
+ a0 = 1.900878686e+00 la0 = 1.020023895e-07 wa0 = 5.099782096e-07 pa0 = -1.025362188e-12
+ keta = 1.855080090e-01 lketa = -7.439984209e-7
+ a1 = 0.0
+ a2 = 0.38689047
+ ags = -3.747436646e-01 lags = 3.623953020e-06 wags = -1.928991351e-07 pags = 3.878430010e-13
+ b0 = 0.0
+ b1 = 0.0
* BSIM4 - Mobility Parameters
+ eu = 1.67
+ rdswmin = 0.0
+ rdw = 0.0
+ rdwmin = 0.0
+ rsw = 0.0
+ rswmin = 0.0
* Subthreshold Current Parameters
+ voff = {-1.224166343e-01+sky130_fd_pr__nfet_01v8_lvt__voff_slope_spectre*(sky130_fd_pr__nfet_01v8_lvt__voff_slope/sqrt(l*w*mult))} lvoff = 1.310926146e-08 wvoff = 4.898674077e-08 pvoff = -9.849274098e-14
+ nfactor = {7.073644128e-01+sky130_fd_pr__nfet_01v8_lvt__nfactor_slope_spectre*(sky130_fd_pr__nfet_01v8_lvt__nfactor_slope/sqrt(l*w*mult))} lnfactor = 1.355454409e-06 wnfactor = 1.492679016e-06 pnfactor = -3.001180430e-12
+ up = 0.0
+ ud = 0.0
+ lp = 1.0
+ tvfbsdoff = 0.0
+ tvoff = 0.0
+ cit = 1.0e-5
+ cdsc = 3.8556e-37
+ cdscb = -0.00011484
+ cdscd = 4.7984e-6
+ eta0 = 1.599213500e-01 leta0 = -3.205325663e-7
+ etab = -1.398683500e-01 letab = 2.802140045e-7
+ dsub = 8.384947203e-01 ldsub = -1.116930925e-6
* BSIM4 - Sub-threshold parameters
+ voffl = 0.0
+ minv = 0.0
* Rout Parameters
+ pclm = -1.135910341e-01 lpclm = 6.910251931e-07 wpclm = 1.950354908e-06 ppclm = -3.921383578e-12
+ pdiblc1 = 0.39
+ pdiblc2 = 4.736927973e-03 lpdiblc2 = 7.951062517e-09 wpdiblc2 = -2.652728186e-08 ppdiblc2 = 5.333575290e-14
+ pdiblcb = 0.0
+ drout = 3.4946
+ pscbe1 = 450000000.0
+ pscbe2 = 1.0e-8
+ pvag = 0.0
+ delta = 0.01
+ alpha0 = -6.619115086e-05 lalpha0 = 3.859764520e-10 walpha0 = 7.495140793e-10 palpha0 = -1.506973008e-15
+ alpha1 = 0.0
+ beta0 = 1.372440306e+01 lbeta0 = 1.522466922e-05 wbeta0 = 4.175248578e-06 pbeta0 = -8.394754790e-12
* BSIM4 - Rout Parameters
+ fprout = 0.0
+ pdits = 1.4427e-15
+ pditsl = 0.0
+ pditsd = 0.0
* BSIM4 - Gate Induced Drain Leakage Model Parameters
+ agidl = 0.0
+ bgidl = 2300000000.0
+ cgidl = 0.5
+ egidl = 0.8
* BSIM4 - Gate Leakage Current Parameters
+ aigbacc = 1.0
+ bigbacc = 0.0
+ cigbacc = 0.0
+ nigbacc = 1.0
+ aigbinv = 0.35
+ bigbinv = 0.03
+ cigbinv = 0.006
+ eigbinv = 1.1
+ nigbinv = 3.0
+ aigc = 0.43
+ bigc = 0.054
+ cigc = 0.075
+ nigc = 1.0
+ aigsd = 0.43
+ bigsd = 0.054
+ cigsd = 0.075
+ dlcig = 0.0
+ poxedge = 1.0
+ pigcd = 1.0
+ ntox = 1.0
+ toxref = 4.148e-9
* Temperature Effects Parameters
+ kt1 = -2.544900068e-01 lkt1 = 1.729129739e-09 wkt1 = 5.781948205e-09 pkt1 = -1.162518506e-14
+ kt2 = -3.979131572e-02 lkt2 = 2.038007638e-08 wkt2 = 3.958410694e-09 pkt2 = -7.958780542e-15
+ at = 4.556946537e+04 lat = 1.167863972e-02 wat = 3.928537295e+00 pat = -7.898717086e-6
+ ute = -1.242439401e+00 lute = 1.472551399e-07 wute = 1.767200580e-06 pute = -3.553133485e-12
+ ua1 = 2.632835910e-09 lua1 = 1.245092379e-15 wua1 = -3.602598497e-15 pua1 = 7.243384538e-21
+ ub1 = -2.899948760e-18 lub1 = -1.742891103e-24 wub1 = 1.230220672e-23 pub1 = -2.473481683e-29
+ uc1 = -2.031787642e-11 luc1 = -2.901320647e-17 wuc1 = 1.149718162e-16 puc1 = -2.311623337e-22
+ kt1l = 0.0
+ prt = 0.0
* BSIM4 - High Speed RF Model Parameters
+ xrcrg1 = 12.0
+ xrcrg2 = 1.0
+ rbpb = 50.0
+ rbpd = 50.0
+ rbps = 50.0
+ rbdb = 50.0
+ rbsb = 50.0
+ gbmin = 1.0e-12
* BSIM4 - Flicker and Thermal Noise Parameters
+ noia = 9.0e+41
+ noib = 1.0e+27
+ noic = 800000000000.0
+ em = 41000000.0
+ af = 1.0
+ ef = 1.2
+ kf = 0.0
+ ntnoi = 1.0
* BSIM4 - Layout Dependent Parasitic Model Parameters
+ dmcg = 0.0
+ dmcgt = 0.0
+ dmdg = 0.0
+ xgw = 0.0
+ xgl = 0.0
+ ngcon = 1.0
* Diode DC IV Parameters
* BSIM4 - Diode DC IV parameters
+ diomod = 1.0
+ njs = 1.2928
+ jss = 0.00275
+ jsws = 6.0e-10
+ xtis = 2.0
+ bvs = 11.9
+ xjbvs = 1.0
+ ijthsrev = 0.1
+ ijthsfwd = 0.1
* Diode and FET Capacitance Parameters
+ tpb = 0.0012287
+ tpbsw = 0.0
+ tpbswg = 0.0
+ tcj = 0.000792
+ tcjsw = 1.0e-5
+ tcjswg = 0.0
+ cgdo = 2.537795114e-10
+ cgso = 2.537795114e-10
+ cgbo = 1.0e-14
+ capmod = 2.0
+ xpart = 0.0
+ cgsl = 2.45065e-11
+ cgdl = 2.45065e-11
+ cf = 1.0e-14
+ clc = 1.0e-7
+ cle = 0.6
+ dlc = -2.164e-9
+ dwc = 5.8175e-8
+ vfbcv = -1.0
+ acde = 0.38008
+ moin = 23.81
+ noff = 3.8661
+ voffcv = -0.16994
+ ngate = 1.0e+23
+ lwc = 0.0
+ llc = 0.0
+ lwlc = 0.0
+ wlc = 0.0
+ wwc = 0.0
+ wwlc = 0.0
* BSIM4 - FET and Diode capacitance parameters
+ ckappas = 0.6
+ cjs = 0.0014211795
+ mjs = 0.42197
+ pbs = 0.7477
+ cjsws = 3.79518848e-11
+ mjsws = 0.001
+ pbsws = 0.1
+ cjswgs = 2.10922964e-10
+ mjswgs = 0.8
+ pbswgs = 0.79644
* Stress Parameters
+ saref = 3.0e-6
+ sbref = 3.0e-6
+ wlod = {0+sky130_fd_pr__nfet_01v8_lvt__wlod_diff}
+ kvth0 = {0+sky130_fd_pr__nfet_01v8_lvt__kvth0_diff}
+ lkvth0 = {0+sky130_fd_pr__nfet_01v8_lvt__lkvth0_diff}
+ wkvth0 = {0+sky130_fd_pr__nfet_01v8_lvt__wkvth0_diff}
+ pkvth0 = 0.0
+ llodvth = 0.0
+ wlodvth = 1.0
+ stk2 = 0.0
+ lodk2 = 1.0
+ lodeta0 = 1.0
+ ku0 = {0+sky130_fd_pr__nfet_01v8_lvt__ku0_diff}
+ lku0 = {0+sky130_fd_pr__nfet_01v8_lvt__lku0_diff}
+ wku0 = {0+sky130_fd_pr__nfet_01v8_lvt__wku0_diff}
+ pku0 = 0.0
+ llodku0 = 0.0
+ wlodku0 = 1.0
+ kvsat = {0+sky130_fd_pr__nfet_01v8_lvt__kvsat_diff}
+ steta0 = 0.0
+ tku0 = 0.0
.model sky130_fd_pr__nfet_01v8_lvt__model.3 nmos
* DC IV MOS Parameters
+ lmin = 1e-06 lmax = 2e-06 wmin = 7e-06 wmax = 1.0e-4
+ level = 54.0
+ tnom = 30.0
+ version = 4.5
+ toxm = 4.148e-9
+ xj = 1.5e-7
+ lln = 1.0
+ lwn = 1.0
+ wln = 1.0
+ wwn = 1.0
+ lint = -5.3e-9
+ ll = 0.0
+ lw = 0.0
+ lwl = 0.0
+ wint = 5.8175e-8
+ wl = 0.0
+ ww = 0.0
+ wwl = 0.0
+ xl = 0.0
+ xw = 0.0
+ mobmod = 0.0
+ binunit = 2.0
+ dwg = -1.33e-8
+ dwb = -1.08e-8
* BSIM4 - Model Selectors
+ igcmod = 0.0
+ igbmod = 0.0
+ rgatemod = 0.0
+ rbodymod = 1.0
+ trnqsmod = 0.0
+ acnqsmod = 0.0
+ fnoimod = 1.0
+ tnoimod = 1.0
+ permod = 1.0
+ geomod = 0.0
+ rdsmod = 0.0
+ tempmod = 0.0
+ lintnoi = -3.0e-7
+ vfbsdoff = 0.0
+ lambda = 0.0
+ vtl = 0.0
+ lc = 0.0
+ xn = 0.0
+ rnoia = 0.912
+ rnoib = 0.26
+ tnoia = 25000000.0
+ tnoib = 9900000.0
* BSIM4 - Process Parameters
+ epsrox = 3.9
+ toxe = {4.363696e-09+sky130_fd_pr__nfet_01v8_lvt__toxe_slope_spectre*(4.363696e-09*(sky130_fd_pr__nfet_01v8_lvt__toxe_slope/sqrt(l*w*mult)))}
+ dtox = 0.0
+ ndep = 1.7000000000000000e+17
+ nsd = 1.0e+20
+ rshg = 0.1
+ rsh = 1.0
* Threshold Voltage Parameters
+ vth0 = {4.296412904e-01+sky130_fd_pr__nfet_01v8_lvt__vth0_slope_spectre*(sky130_fd_pr__nfet_01v8_lvt__vth0_slope/sqrt(l*w*mult))} lvth0 = 5.390236789e-9
+ k1 = 4.289650540e-01 lk1 = 2.864996428e-9
+ k2 = -1.322128542e-02 lk2 = -7.862078495e-9
+ k3 = 1.65
+ dvt0 = 0.07665
+ dvt1 = 0.1252
+ dvt2 = -0.05637
+ dvt0w = 0.0
+ dvt1w = 5300000.0
+ dvt2w = -0.032
+ w0 = 1.0e-7
+ k3b = 1.6
+ vfb = 0.0
* NEW BSIM4 Parameters for Level 54
+ phin = 0.0
+ lpe0 = 2.3802e-7
+ lpeb = -4.9152e-8
+ vbm = -3.0
+ dvtp0 = 0.0
+ dvtp1 = 0.0
* Mobility Parameters
+ vsat = 1.825027700e+04 lvsat = 5.477019766e-2
+ ua = -9.408298839e-10 lua = -5.714151863e-16
+ ub = 2.567681588e-18 lub = 1.254441734e-25
+ uc = 5.919376580e-11 luc = 2.764823148e-17
+ rdsw = 103.65
+ prwb = 0.0
+ prwg = 0.0
+ wr = 1.0
+ u0 = 3.856590003e-02 lu0 = -8.549372850e-9
+ a0 = 2.194610781e+00 la0 = -4.885753589e-7
+ keta = -1.435097460e-01 lketa = -8.247532269e-8
+ a1 = 0.0
+ a2 = 0.38689047
+ ags = 7.402628058e-01 lags = 1.382121011e-6
+ b0 = 0.0
+ b1 = 0.0
* BSIM4 - Mobility Parameters
+ eu = 1.67
+ rdswmin = 0.0
+ rdw = 0.0
+ rdwmin = 0.0
+ rsw = 0.0
+ rswmin = 0.0
* Subthreshold Current Parameters
+ voff = {-1.171097954e-01+sky130_fd_pr__nfet_01v8_lvt__voff_slope_spectre*(sky130_fd_pr__nfet_01v8_lvt__voff_slope/sqrt(l*w*mult))} lvoff = 2.439331107e-9
+ nfactor = {9.970702915e-01+sky130_fd_pr__nfet_01v8_lvt__nfactor_slope_spectre*(sky130_fd_pr__nfet_01v8_lvt__nfactor_slope/sqrt(l*w*mult))} lnfactor = 7.729717692e-7
+ up = 0.0
+ ud = 0.0
+ lp = 1.0
+ tvfbsdoff = 0.0
+ tvoff = 0.0
+ cit = 1.505300000e-05 lcit = -1.015956180e-11
+ cdsc = 3.8556e-37
+ cdscb = -0.00011484
+ cdscd = 4.7984e-6
+ eta0 = 5.944506760e-04 leta0 = -1.899025292e-10
+ etab = -5.430717720e-04 letab = 8.660010478e-11
+ dsub = -6.340633544e-02 ldsub = 6.964313374e-7
* BSIM4 - Sub-threshold parameters
+ voffl = 0.0
+ minv = 0.0
* Rout Parameters
+ pclm = 2.292005660e-01 lpclm = 1.808402000e-9
+ pdiblc1 = 0.39
+ pdiblc2 = 6.955794500e-03 lpdiblc2 = 3.489809478e-9
+ pdiblcb = 0.0
+ drout = 3.4946
+ pscbe1 = 450000000.0
+ pscbe2 = 1.0e-8
+ pvag = 0.0
+ delta = 0.01
+ alpha0 = 1.887537269e-04 lalpha0 = -1.266157192e-10
+ alpha1 = 0.0
+ beta0 = 2.119341263e+01 lbeta0 = 2.074785711e-7
* BSIM4 - Rout Parameters
+ fprout = 0.0
+ pdits = 1.4427e-15
+ pditsl = 0.0
+ pditsd = 0.0
* BSIM4 - Gate Induced Drain Leakage Model Parameters
+ agidl = 0.0
+ bgidl = 2300000000.0
+ cgidl = 0.5
+ egidl = 0.8
* BSIM4 - Gate Leakage Current Parameters
+ aigbacc = 1.0
+ bigbacc = 0.0
+ cigbacc = 0.0
+ nigbacc = 1.0
+ aigbinv = 0.35
+ bigbinv = 0.03
+ cigbinv = 0.006
+ eigbinv = 1.1
+ nigbinv = 3.0
+ aigc = 0.43
+ bigc = 0.054
+ cigc = 0.075
+ nigc = 1.0
+ aigsd = 0.43
+ bigsd = 0.054
+ cigsd = 0.075
+ dlcig = 0.0
+ poxedge = 1.0
+ pigcd = 1.0
+ ntox = 1.0
+ toxref = 4.148e-9
* Temperature Effects Parameters
+ kt1 = -2.505779880e-01 lkt1 = -6.136375327e-9
+ kt2 = -4.652898820e-02 lkt2 = 3.392684067e-8
+ at = 3.027262960e+04 lat = 4.243445773e-2
+ ute = -1.329885400e+00 lute = 3.230740652e-7
+ ua1 = 3.274737440e-09 lua1 = -4.551483686e-17
+ ub1 = -3.913337000e-18 lub1 = 2.946272922e-25
+ uc1 = 1.290785360e-11 luc1 = -9.581685925e-17
+ kt1l = 0.0
+ prt = 0.0
* BSIM4 - High Speed RF Model Parameters
+ xrcrg1 = 12.0
+ xrcrg2 = 1.0
+ rbpb = 50.0
+ rbpd = 50.0
+ rbps = 50.0
+ rbdb = 50.0
+ rbsb = 50.0
+ gbmin = 1.0e-12
* BSIM4 - Flicker and Thermal Noise Parameters
+ noia = 9.0e+41
+ noib = 1.0e+27
+ noic = 800000000000.0
+ em = 41000000.0
+ af = 1.0
+ ef = 1.2
+ kf = 0.0
+ ntnoi = 1.0
* BSIM4 - Layout Dependent Parasitic Model Parameters
+ dmcg = 0.0
+ dmcgt = 0.0
+ dmdg = 0.0
+ xgw = 0.0
+ xgl = 0.0
+ ngcon = 1.0
* Diode DC IV Parameters
* BSIM4 - Diode DC IV parameters
+ diomod = 1.0
+ njs = 1.2928
+ jss = 0.00275
+ jsws = 6.0e-10
+ xtis = 2.0
+ bvs = 11.9
+ xjbvs = 1.0
+ ijthsrev = 0.1
+ ijthsfwd = 0.1
* Diode and FET Capacitance Parameters
+ tpb = 0.0012287
+ tpbsw = 0.0
+ tpbswg = 0.0
+ tcj = 0.000792
+ tcjsw = 1.0e-5
+ tcjswg = 0.0
+ cgdo = 2.537795114e-10
+ cgso = 2.537795114e-10
+ cgbo = 1.0e-14
+ capmod = 2.0
+ xpart = 0.0
+ cgsl = 2.45065e-11
+ cgdl = 2.45065e-11
+ cf = 1.0e-14
+ clc = 1.0e-7
+ cle = 0.6
+ dlc = -2.164e-9
+ dwc = 5.8175e-8
+ vfbcv = -1.0
+ acde = 0.38008
+ moin = 23.81
+ noff = 3.8661
+ voffcv = -0.16994
+ ngate = 1.0e+23
+ lwc = 0.0
+ llc = 0.0
+ lwlc = 0.0
+ wlc = 0.0
+ wwc = 0.0
+ wwlc = 0.0
* BSIM4 - FET and Diode capacitance parameters
+ ckappas = 0.6
+ cjs = 0.0014211795
+ mjs = 0.42197
+ pbs = 0.7477
+ cjsws = 3.79518848e-11
+ mjsws = 0.001
+ pbsws = 0.1
+ cjswgs = 2.10922964e-10
+ mjswgs = 0.8
+ pbswgs = 0.79644
* Stress Parameters
+ saref = 2.74e-6
+ sbref = 2.74e-6
+ wlod = {0+sky130_fd_pr__nfet_01v8_lvt__wlod_diff}
+ kvth0 = {0+sky130_fd_pr__nfet_01v8_lvt__kvth0_diff}
+ lkvth0 = {0+sky130_fd_pr__nfet_01v8_lvt__lkvth0_diff}
+ wkvth0 = {0+sky130_fd_pr__nfet_01v8_lvt__wkvth0_diff}
+ pkvth0 = 0.0
+ llodvth = 0.0
+ wlodvth = 1.0
+ stk2 = 0.0
+ lodk2 = 1.0
+ lodeta0 = 1.0
+ ku0 = {0+sky130_fd_pr__nfet_01v8_lvt__ku0_diff}
+ lku0 = {0+sky130_fd_pr__nfet_01v8_lvt__lku0_diff}
+ wku0 = {0+sky130_fd_pr__nfet_01v8_lvt__wku0_diff}
+ pku0 = 0.0
+ llodku0 = 0.0
+ wlodku0 = 1.0
+ kvsat = {0+sky130_fd_pr__nfet_01v8_lvt__kvsat_diff}
+ steta0 = 0.0
+ tku0 = 0.0
.model sky130_fd_pr__nfet_01v8_lvt__model.4 nmos
* DC IV MOS Parameters
+ lmin = 5e-07 lmax = 1e-06 wmin = 7e-06 wmax = 1.0e-4
+ level = 54.0
+ tnom = 30.0
+ version = 4.5
+ toxm = 4.148e-9
+ xj = 1.5e-7
+ lln = 1.0
+ lwn = 1.0
+ wln = 1.0
+ wwn = 1.0
+ lint = -5.3e-9
+ ll = 0.0
+ lw = 0.0
+ lwl = 0.0
+ wint = 5.8175e-8
+ wl = 0.0
+ ww = 0.0
+ wwl = 0.0
+ xl = 0.0
+ xw = 0.0
+ mobmod = 0.0
+ binunit = 2.0
+ dwg = -1.33e-8
+ dwb = -1.08e-8
* BSIM4 - Model Selectors
+ igcmod = 0.0
+ igbmod = 0.0
+ rgatemod = 0.0
+ rbodymod = 1.0
+ trnqsmod = 0.0
+ acnqsmod = 0.0
+ fnoimod = 1.0
+ tnoimod = 1.0
+ permod = 1.0
+ geomod = 0.0
+ rdsmod = 0.0
+ tempmod = 0.0
+ lintnoi = -3.0e-7
+ vfbsdoff = 0.0
+ lambda = 0.0
+ vtl = 0.0
+ lc = 0.0
+ xn = 0.0
+ rnoia = 0.912
+ rnoib = 0.26
+ tnoia = 25000000.0
+ tnoib = 9900000.0
* BSIM4 - Process Parameters
+ epsrox = 3.9
+ toxe = {4.363696e-09+sky130_fd_pr__nfet_01v8_lvt__toxe_slope_spectre*(4.363696e-09*(sky130_fd_pr__nfet_01v8_lvt__toxe_slope/sqrt(l*w*mult)))}
+ dtox = 0.0
+ ndep = 1.7000000000000000e+17
+ nsd = 1.0e+20
+ rshg = 0.1
+ rsh = 1.0
* Threshold Voltage Parameters
+ vth0 = {4.400250589e-01+sky130_fd_pr__nfet_01v8_lvt__vth0_slope_spectre*(sky130_fd_pr__nfet_01v8_lvt__vth0_slope/sqrt(l*w*mult))} lvth0 = -5.103599606e-9
+ k1 = 4.339445200e-01 lk1 = -2.167251912e-9
+ k2 = -1.418804385e-02 lk2 = -6.885072422e-9
+ k3 = 1.65
+ dvt0 = 0.07665
+ dvt1 = 0.1252
+ dvt2 = -0.05637
+ dvt0w = 0.0
+ dvt1w = 5300000.0
+ dvt2w = -0.032
+ w0 = 1.0e-7
+ k3b = 1.6
+ vfb = 0.0
* NEW BSIM4 Parameters for Level 54
+ phin = 0.0
+ lpe0 = 2.3802e-7
+ lpeb = -4.9152e-8
+ vbm = -3.0
+ dvtp0 = 0.0
+ dvtp1 = 0.0
* Mobility Parameters