* NGSPICE file created from controller.ext - technology: sky130A

.subckt sky130_fd_sc_hd__inv_2 VPB VNB VPWR VGND Y A
X0 Y A VPWR VPB sky130_fd_pr__pfet_01v8_hvt ad=0.135 pd=1.27 as=0.26 ps=2.52 w=1 l=0.15
X1 VGND A Y VNB sky130_fd_pr__nfet_01v8 ad=0.169 pd=1.82 as=0.08775 ps=0.92 w=0.65 l=0.15
X2 Y A VGND VNB sky130_fd_pr__nfet_01v8 ad=0.08775 pd=0.92 as=0.169 ps=1.82 w=0.65 l=0.15
X3 VPWR A Y VPB sky130_fd_pr__pfet_01v8_hvt ad=0.26 pd=2.52 as=0.135 ps=1.27 w=1 l=0.15
.ends

.subckt sky130_fd_sc_hd__decap_3 VPWR VGND VPB VNB
X0 VPWR VGND VPWR VPB sky130_fd_pr__pfet_01v8_hvt ad=0.2262 pd=2.26 as=0 ps=0 w=0.87 l=0.59
X1 VGND VPWR VGND VNB sky130_fd_pr__nfet_01v8 ad=0.143 pd=1.62 as=0 ps=0 w=0.55 l=0.59
.ends

.subckt sky130_ef_sc_hd__decap_12 VGND VPWR VPB VNB
X0 VPWR VGND VPWR VPB sky130_fd_pr__pfet_01v8_hvt ad=0.2262 pd=2.26 as=0 ps=0 w=0.87 l=4.73
X1 VGND VPWR VGND VNB sky130_fd_pr__nfet_01v8 ad=0.143 pd=1.62 as=0 ps=0 w=0.55 l=4.73
.ends

.subckt sky130_fd_sc_hd__xor2_1 VNB VPB VPWR VGND A X B
X0 X a_35_297# a_285_297# VPB sky130_fd_pr__pfet_01v8_hvt ad=0.3 pd=2.6 as=0.26 ps=2.52 w=1 l=0.15
X1 X B a_285_47# VNB sky130_fd_pr__nfet_01v8 ad=0.25025 pd=1.42 as=0.08775 ps=0.92 w=0.65 l=0.15
X2 a_35_297# B VGND VNB sky130_fd_pr__nfet_01v8 ad=0.08775 pd=0.92 as=0.169 ps=1.82 w=0.65 l=0.15
X3 a_117_297# B a_35_297# VPB sky130_fd_pr__pfet_01v8_hvt ad=0.135 pd=1.27 as=0.26 ps=2.52 w=1 l=0.15
X4 VPWR B a_285_297# VPB sky130_fd_pr__pfet_01v8_hvt ad=0.26 pd=2.52 as=0.135 ps=1.27 w=1 l=0.15
X5 VGND A a_35_297# VNB sky130_fd_pr__nfet_01v8 ad=0.08775 pd=0.92 as=0.08775 ps=0.92 w=0.65 l=0.15
X6 VGND a_35_297# X VNB sky130_fd_pr__nfet_01v8 ad=0.208 pd=1.94 as=0.25025 ps=1.42 w=0.65 l=0.15
X7 a_285_297# A VPWR VPB sky130_fd_pr__pfet_01v8_hvt ad=0.135 pd=1.27 as=0.135 ps=1.27 w=1 l=0.15
X8 VPWR A a_117_297# VPB sky130_fd_pr__pfet_01v8_hvt ad=0.135 pd=1.27 as=0.135 ps=1.27 w=1 l=0.15
X9 a_285_47# A VGND VNB sky130_fd_pr__nfet_01v8 ad=0.08775 pd=0.92 as=0.08775 ps=0.92 w=0.65 l=0.15
.ends

.subckt sky130_fd_sc_hd__and4_1 X C A B D VGND VPWR VPB VNB
X0 a_27_47# C VPWR VPB sky130_fd_pr__pfet_01v8_hvt ad=0.0588 pd=0.7 as=0.0777 ps=0.79 w=0.42 l=0.15
X1 a_197_47# B a_109_47# VNB sky130_fd_pr__nfet_01v8 ad=0.0798 pd=0.8 as=0.0609 ps=0.71 w=0.42 l=0.15
X2 X a_27_47# VPWR VPB sky130_fd_pr__pfet_01v8_hvt ad=0.26 pd=2.52 as=0.31245 ps=1.68 w=1 l=0.15
X3 a_303_47# C a_197_47# VNB sky130_fd_pr__nfet_01v8 ad=0.0693 pd=0.75 as=0.0798 ps=0.8 w=0.42 l=0.15
X4 a_27_47# A VPWR VPB sky130_fd_pr__pfet_01v8_hvt ad=0.0735 pd=0.77 as=0.1092 ps=1.36 w=0.42 l=0.15
X5 VPWR D a_27_47# VPB sky130_fd_pr__pfet_01v8_hvt ad=0.31245 pd=1.68 as=0.0588 ps=0.7 w=0.42 l=0.15
X6 VGND D a_303_47# VNB sky130_fd_pr__nfet_01v8 ad=0.196275 pd=1.33 as=0.0693 ps=0.75 w=0.42 l=0.15
X7 VPWR B a_27_47# VPB sky130_fd_pr__pfet_01v8_hvt ad=0.0777 pd=0.79 as=0.0735 ps=0.77 w=0.42 l=0.15
X8 X a_27_47# VGND VNB sky130_fd_pr__nfet_01v8 ad=0.169 pd=1.82 as=0.196275 ps=1.33 w=0.65 l=0.15
X9 a_109_47# A a_27_47# VNB sky130_fd_pr__nfet_01v8 ad=0.0609 pd=0.71 as=0.1092 ps=1.36 w=0.42 l=0.15
.ends

.subckt sky130_fd_sc_hd__decap_4 VGND VPWR VPB VNB
X0 VPWR VGND VPWR VPB sky130_fd_pr__pfet_01v8_hvt ad=0.2262 pd=2.26 as=0 ps=0 w=0.87 l=1.05
X1 VGND VPWR VGND VNB sky130_fd_pr__nfet_01v8 ad=0.143 pd=1.62 as=0 ps=0 w=0.55 l=1.05
.ends

.subckt sky130_fd_sc_hd__buf_2 VPWR VGND X A VPB VNB
X0 VPWR a_27_47# X VPB sky130_fd_pr__pfet_01v8_hvt ad=0.265 pd=2.53 as=0.135 ps=1.27 w=1 l=0.15
X1 X a_27_47# VPWR VPB sky130_fd_pr__pfet_01v8_hvt ad=0.135 pd=1.27 as=0.149 ps=1.325 w=1 l=0.15
X2 VPWR A a_27_47# VPB sky130_fd_pr__pfet_01v8_hvt ad=0.149 pd=1.325 as=0.1664 ps=1.8 w=0.64 l=0.15
X3 X a_27_47# VGND VNB sky130_fd_pr__nfet_01v8 ad=0.08775 pd=0.92 as=0.097 ps=0.975 w=0.65 l=0.15
X4 VGND a_27_47# X VNB sky130_fd_pr__nfet_01v8 ad=0.17225 pd=1.83 as=0.08775 ps=0.92 w=0.65 l=0.15
X5 VGND A a_27_47# VNB sky130_fd_pr__nfet_01v8 ad=0.097 pd=0.975 as=0.1092 ps=1.36 w=0.42 l=0.15
.ends

.subckt sky130_fd_sc_hd__mux2_1 VGND VPWR VPB VNB X A1 S A0
X0 VPWR a_505_21# a_535_374# VPB sky130_fd_pr__pfet_01v8_hvt ad=0.0693 pd=0.75 as=0.0441 ps=0.63 w=0.42 l=0.15
X1 a_505_21# S VPWR VPB sky130_fd_pr__pfet_01v8_hvt ad=0.1176 pd=1.4 as=0.0693 ps=0.75 w=0.42 l=0.15
X2 a_218_374# S VPWR VPB sky130_fd_pr__pfet_01v8_hvt ad=0.07665 pd=0.785 as=0.15835 ps=1.395 w=0.42 l=0.15
X3 VGND a_505_21# a_439_47# VNB sky130_fd_pr__nfet_01v8 ad=0.1449 pd=1.11 as=0.0693 ps=0.75 w=0.42 l=0.15
X4 a_76_199# A0 a_218_374# VPB sky130_fd_pr__pfet_01v8_hvt ad=0.1932 pd=1.34 as=0.07665 ps=0.785 w=0.42 l=0.15
X5 a_505_21# S VGND VNB sky130_fd_pr__nfet_01v8 ad=0.1092 pd=1.36 as=0.1449 ps=1.11 w=0.42 l=0.15
X6 a_439_47# A0 a_76_199# VNB sky130_fd_pr__nfet_01v8 ad=0.0693 pd=0.75 as=0.09975 ps=0.895 w=0.42 l=0.15
X7 a_535_374# A1 a_76_199# VPB sky130_fd_pr__pfet_01v8_hvt ad=0.0441 pd=0.63 as=0.1932 ps=1.34 w=0.42 l=0.15
X8 a_76_199# A1 a_218_47# VNB sky130_fd_pr__nfet_01v8 ad=0.09975 pd=0.895 as=0.0693 ps=0.75 w=0.42 l=0.15
X9 a_218_47# S VGND VNB sky130_fd_pr__nfet_01v8 ad=0.0693 pd=0.75 as=0.11285 ps=1.045 w=0.42 l=0.15
X10 VPWR a_76_199# X VPB sky130_fd_pr__pfet_01v8_hvt ad=0.15835 pd=1.395 as=0.26 ps=2.52 w=1 l=0.15
X11 VGND a_76_199# X VNB sky130_fd_pr__nfet_01v8 ad=0.11285 pd=1.045 as=0.169 ps=1.82 w=0.65 l=0.15
.ends

.subckt sky130_fd_sc_hd__clkbuf_16 VNB VPB VGND VPWR A X
X0 VPWR A a_110_47# VPB sky130_fd_pr__pfet_01v8_hvt ad=0.14 pd=1.28 as=0.14 ps=1.28 w=1 l=0.15
X1 VPWR a_110_47# X VPB sky130_fd_pr__pfet_01v8_hvt ad=0.14 pd=1.28 as=0.14 ps=1.28 w=1 l=0.15
X2 X a_110_47# VPWR VPB sky130_fd_pr__pfet_01v8_hvt ad=0.14 pd=1.28 as=0.14 ps=1.28 w=1 l=0.15
X3 X a_110_47# VPWR VPB sky130_fd_pr__pfet_01v8_hvt ad=0.14 pd=1.28 as=0.14 ps=1.28 w=1 l=0.15
X4 VPWR a_110_47# X VPB sky130_fd_pr__pfet_01v8_hvt ad=0.14 pd=1.28 as=0.14 ps=1.28 w=1 l=0.15
X5 VPWR a_110_47# X VPB sky130_fd_pr__pfet_01v8_hvt ad=0.265 pd=2.53 as=0.14 ps=1.28 w=1 l=0.15
X6 a_110_47# A VPWR VPB sky130_fd_pr__pfet_01v8_hvt ad=0.14 pd=1.28 as=0.265 ps=2.53 w=1 l=0.15
X7 a_110_47# A VGND VNB sky130_fd_pr__nfet_01v8 ad=0.0588 pd=0.7 as=0.0588 ps=0.7 w=0.42 l=0.15
X8 VGND a_110_47# X VNB sky130_fd_pr__nfet_01v8 ad=0.0588 pd=0.7 as=0.0588 ps=0.7 w=0.42 l=0.15
X9 X a_110_47# VGND VNB sky130_fd_pr__nfet_01v8 ad=0.0588 pd=0.7 as=0.0588 ps=0.7 w=0.42 l=0.15
X10 VGND a_110_47# X VNB sky130_fd_pr__nfet_01v8 ad=0.0588 pd=0.7 as=0.0588 ps=0.7 w=0.42 l=0.15
X11 a_110_47# A VPWR VPB sky130_fd_pr__pfet_01v8_hvt ad=0.14 pd=1.28 as=0.14 ps=1.28 w=1 l=0.15
X12 VGND A a_110_47# VNB sky130_fd_pr__nfet_01v8 ad=0.0588 pd=0.7 as=0.0588 ps=0.7 w=0.42 l=0.15
X13 VGND a_110_47# X VNB sky130_fd_pr__nfet_01v8 ad=0.05775 pd=0.695 as=0.0588 ps=0.7 w=0.42 l=0.15
X14 VPWR a_110_47# X VPB sky130_fd_pr__pfet_01v8_hvt ad=0.14 pd=1.28 as=0.14 ps=1.28 w=1 l=0.15
X15 X a_110_47# VPWR VPB sky130_fd_pr__pfet_01v8_hvt ad=0.14 pd=1.28 as=0.14 ps=1.28 w=1 l=0.15
X16 VGND A a_110_47# VNB sky130_fd_pr__nfet_01v8 ad=0.0588 pd=0.7 as=0.0588 ps=0.7 w=0.42 l=0.15
X17 VGND a_110_47# X VNB sky130_fd_pr__nfet_01v8 ad=0.1113 pd=1.37 as=0.0588 ps=0.7 w=0.42 l=0.15
X18 VPWR a_110_47# X VPB sky130_fd_pr__pfet_01v8_hvt ad=0.1375 pd=1.275 as=0.14 ps=1.28 w=1 l=0.15
X19 VGND a_110_47# X VNB sky130_fd_pr__nfet_01v8 ad=0.0588 pd=0.7 as=0.0588 ps=0.7 w=0.42 l=0.15
X20 X a_110_47# VPWR VPB sky130_fd_pr__pfet_01v8_hvt ad=0.14 pd=1.28 as=0.1375 ps=1.275 w=1 l=0.15
X21 a_110_47# A VGND VNB sky130_fd_pr__nfet_01v8 ad=0.0588 pd=0.7 as=0.1113 ps=1.37 w=0.42 l=0.15
X22 VPWR A a_110_47# VPB sky130_fd_pr__pfet_01v8_hvt ad=0.14 pd=1.28 as=0.14 ps=1.28 w=1 l=0.15
X23 VPWR a_110_47# X VPB sky130_fd_pr__pfet_01v8_hvt ad=0.14 pd=1.28 as=0.14 ps=1.28 w=1 l=0.15
X24 VPWR a_110_47# X VPB sky130_fd_pr__pfet_01v8_hvt ad=0.14 pd=1.28 as=0.14 ps=1.28 w=1 l=0.15
X25 VGND a_110_47# X VNB sky130_fd_pr__nfet_01v8 ad=0.0588 pd=0.7 as=0.0588 ps=0.7 w=0.42 l=0.15
X26 X a_110_47# VPWR VPB sky130_fd_pr__pfet_01v8_hvt ad=0.14 pd=1.28 as=0.14 ps=1.28 w=1 l=0.15
X27 VGND a_110_47# X VNB sky130_fd_pr__nfet_01v8 ad=0.0588 pd=0.7 as=0.0588 ps=0.7 w=0.42 l=0.15
X28 VGND a_110_47# X VNB sky130_fd_pr__nfet_01v8 ad=0.0588 pd=0.7 as=0.0588 ps=0.7 w=0.42 l=0.15
X29 X a_110_47# VGND VNB sky130_fd_pr__nfet_01v8 ad=0.0588 pd=0.7 as=0.0588 ps=0.7 w=0.42 l=0.15
X30 X a_110_47# VPWR VPB sky130_fd_pr__pfet_01v8_hvt ad=0.14 pd=1.28 as=0.14 ps=1.28 w=1 l=0.15
X31 X a_110_47# VPWR VPB sky130_fd_pr__pfet_01v8_hvt ad=0.14 pd=1.28 as=0.14 ps=1.28 w=1 l=0.15
X32 X a_110_47# VGND VNB sky130_fd_pr__nfet_01v8 ad=0.0588 pd=0.7 as=0.0588 ps=0.7 w=0.42 l=0.15
X33 VPWR a_110_47# X VPB sky130_fd_pr__pfet_01v8_hvt ad=0.14 pd=1.28 as=0.14 ps=1.28 w=1 l=0.15
X34 X a_110_47# VPWR VPB sky130_fd_pr__pfet_01v8_hvt ad=0.14 pd=1.28 as=0.14 ps=1.28 w=1 l=0.15
X35 X a_110_47# VGND VNB sky130_fd_pr__nfet_01v8 ad=0.0588 pd=0.7 as=0.0588 ps=0.7 w=0.42 l=0.15
X36 X a_110_47# VGND VNB sky130_fd_pr__nfet_01v8 ad=0.0588 pd=0.7 as=0.0588 ps=0.7 w=0.42 l=0.15
X37 X a_110_47# VGND VNB sky130_fd_pr__nfet_01v8 ad=0.0588 pd=0.7 as=0.0588 ps=0.7 w=0.42 l=0.15
X38 X a_110_47# VGND VNB sky130_fd_pr__nfet_01v8 ad=0.0588 pd=0.7 as=0.0588 ps=0.7 w=0.42 l=0.15
X39 X a_110_47# VGND VNB sky130_fd_pr__nfet_01v8 ad=0.0588 pd=0.7 as=0.05775 ps=0.695 w=0.42 l=0.15
.ends

.subckt sky130_fd_sc_hd__decap_6 VPWR VGND VPB VNB
X0 VPWR VGND VPWR VPB sky130_fd_pr__pfet_01v8_hvt ad=0.2262 pd=2.26 as=0 ps=0 w=0.87 l=1.97
X1 VGND VPWR VGND VNB sky130_fd_pr__nfet_01v8 ad=0.143 pd=1.62 as=0 ps=0 w=0.55 l=1.97
.ends

.subckt sky130_fd_sc_hd__a2111oi_1 VNB VPWR VGND VPB D1 C1 B1 A1 Y A2
X0 a_316_297# C1 a_217_297# VPB sky130_fd_pr__pfet_01v8_hvt ad=0.185 pd=1.37 as=0.1725 ps=1.345 w=1 l=0.15
X1 Y D1 VGND VNB sky130_fd_pr__nfet_01v8 ad=0.125125 pd=1.035 as=0.481 ps=2.78 w=0.65 l=0.15
X2 VGND C1 Y VNB sky130_fd_pr__nfet_01v8 ad=0.12025 pd=1.02 as=0.125125 ps=1.035 w=0.65 l=0.15
X3 a_420_297# B1 a_316_297# VPB sky130_fd_pr__pfet_01v8_hvt ad=0.29 pd=1.58 as=0.185 ps=1.37 w=1 l=0.15
X4 VPWR A1 a_420_297# VPB sky130_fd_pr__pfet_01v8_hvt ad=0.1375 pd=1.275 as=0.29 ps=1.58 w=1 l=0.15
X5 VGND A2 a_568_47# VNB sky130_fd_pr__nfet_01v8 ad=0.19175 pd=1.89 as=0.0845 ps=0.91 w=0.65 l=0.15
X6 Y B1 VGND VNB sky130_fd_pr__nfet_01v8 ad=0.19175 pd=1.24 as=0.12025 ps=1.02 w=0.65 l=0.15
X7 a_420_297# A2 VPWR VPB sky130_fd_pr__pfet_01v8_hvt ad=0.29 pd=2.58 as=0.1375 ps=1.275 w=1 l=0.15
X8 a_217_297# D1 Y VPB sky130_fd_pr__pfet_01v8_hvt ad=0.1725 pd=1.345 as=0.755 ps=3.51 w=1 l=0.15
X9 a_568_47# A1 Y VNB sky130_fd_pr__nfet_01v8 ad=0.0845 pd=0.91 as=0.19175 ps=1.24 w=0.65 l=0.15
.ends

.subckt sky130_fd_sc_hd__xnor2_1 VGND VPWR B Y A VPB VNB
X0 a_377_297# A VPWR VPB sky130_fd_pr__pfet_01v8_hvt ad=0.105 pd=1.21 as=0.365 ps=1.73 w=1 l=0.15
X1 a_47_47# B VPWR VPB sky130_fd_pr__pfet_01v8_hvt ad=0.135 pd=1.27 as=0.3 ps=2.6 w=1 l=0.15
X2 a_129_47# B a_47_47# VNB sky130_fd_pr__nfet_01v8 ad=0.06825 pd=0.86 as=0.169 ps=1.82 w=0.65 l=0.15
X3 a_285_47# B VGND VNB sky130_fd_pr__nfet_01v8 ad=0.08775 pd=0.92 as=0.169 ps=1.82 w=0.65 l=0.15
X4 Y a_47_47# a_285_47# VNB sky130_fd_pr__nfet_01v8 ad=0.195 pd=1.9 as=0.08775 ps=0.92 w=0.65 l=0.15
X5 VGND A a_129_47# VNB sky130_fd_pr__nfet_01v8 ad=0.08775 pd=0.92 as=0.06825 ps=0.86 w=0.65 l=0.15
X6 VPWR A a_47_47# VPB sky130_fd_pr__pfet_01v8_hvt ad=0.365 pd=1.73 as=0.135 ps=1.27 w=1 l=0.15
X7 VPWR a_47_47# Y VPB sky130_fd_pr__pfet_01v8_hvt ad=0.36 pd=2.72 as=0.165 ps=1.33 w=1 l=0.15
X8 Y B a_377_297# VPB sky130_fd_pr__pfet_01v8_hvt ad=0.165 pd=1.33 as=0.105 ps=1.21 w=1 l=0.15
X9 a_285_47# A VGND VNB sky130_fd_pr__nfet_01v8 ad=0.169 pd=1.82 as=0.08775 ps=0.92 w=0.65 l=0.15
.ends

.subckt sky130_fd_sc_hd__or4_1 VPWR VGND VPB VNB B D C A X
X0 a_27_297# B VGND VNB sky130_fd_pr__nfet_01v8 ad=0.0567 pd=0.69 as=0.0567 ps=0.69 w=0.42 l=0.15
X1 a_27_297# D VGND VNB sky130_fd_pr__nfet_01v8 ad=0.0693 pd=0.75 as=0.1092 ps=1.36 w=0.42 l=0.15
X2 a_277_297# B a_205_297# VPB sky130_fd_pr__pfet_01v8_hvt ad=0.0693 pd=0.75 as=0.0441 ps=0.63 w=0.42 l=0.15
X3 VPWR A a_277_297# VPB sky130_fd_pr__pfet_01v8_hvt ad=0.14825 pd=1.34 as=0.0693 ps=0.75 w=0.42 l=0.15
X4 X a_27_297# VGND VNB sky130_fd_pr__nfet_01v8 ad=0.1755 pd=1.84 as=0.101875 ps=0.99 w=0.65 l=0.15
X5 a_205_297# C a_109_297# VPB sky130_fd_pr__pfet_01v8_hvt ad=0.0441 pd=0.63 as=0.0693 ps=0.75 w=0.42 l=0.15
X6 X a_27_297# VPWR VPB sky130_fd_pr__pfet_01v8_hvt ad=0.27 pd=2.54 as=0.14825 ps=1.34 w=1 l=0.15
X7 VGND C a_27_297# VNB sky130_fd_pr__nfet_01v8 ad=0.0567 pd=0.69 as=0.0693 ps=0.75 w=0.42 l=0.15
X8 a_109_297# D a_27_297# VPB sky130_fd_pr__pfet_01v8_hvt ad=0.0693 pd=0.75 as=0.1092 ps=1.36 w=0.42 l=0.15
X9 VGND A a_27_297# VNB sky130_fd_pr__nfet_01v8 ad=0.101875 pd=0.99 as=0.0567 ps=0.69 w=0.42 l=0.15
.ends

.subckt sky130_fd_sc_hd__and2_1 VPWR VGND X B A VPB VNB
X0 VPWR B a_59_75# VPB sky130_fd_pr__pfet_01v8_hvt ad=0.16655 pd=1.39 as=0.0567 ps=0.69 w=0.42 l=0.15
X1 X a_59_75# VPWR VPB sky130_fd_pr__pfet_01v8_hvt ad=0.475 pd=2.95 as=0.16655 ps=1.39 w=1 l=0.15
X2 VGND B a_145_75# VNB sky130_fd_pr__nfet_01v8 ad=0.1118 pd=1.04 as=0.0567 ps=0.69 w=0.42 l=0.15
X3 a_59_75# A VPWR VPB sky130_fd_pr__pfet_01v8_hvt ad=0.0567 pd=0.69 as=0.1176 ps=1.4 w=0.42 l=0.15
X4 X a_59_75# VGND VNB sky130_fd_pr__nfet_01v8 ad=0.182 pd=1.86 as=0.1118 ps=1.04 w=0.65 l=0.15
X5 a_145_75# A a_59_75# VNB sky130_fd_pr__nfet_01v8 ad=0.0567 pd=0.69 as=0.1176 ps=1.4 w=0.42 l=0.15
.ends

.subckt sky130_fd_sc_hd__o21ba_1 VNB VPB VGND VPWR B1_N A1 A2 X
X0 a_222_93# B1_N VGND VNB sky130_fd_pr__nfet_01v8 ad=0.1092 pd=1.36 as=0.10025 ps=0.985 w=0.42 l=0.15
X1 VPWR A1 a_544_297# VPB sky130_fd_pr__pfet_01v8_hvt ad=0.28 pd=2.56 as=0.105 ps=1.21 w=1 l=0.15
X2 VGND a_79_199# X VNB sky130_fd_pr__nfet_01v8 ad=0.10025 pd=0.985 as=0.169 ps=1.82 w=0.65 l=0.15
X3 a_222_93# B1_N VPWR VPB sky130_fd_pr__pfet_01v8_hvt ad=0.1176 pd=1.4 as=0.18575 ps=1.415 w=0.42 l=0.15
X4 VGND A2 a_448_47# VNB sky130_fd_pr__nfet_01v8 ad=0.08775 pd=0.92 as=0.10725 ps=0.98 w=0.65 l=0.15
X5 a_448_47# a_222_93# a_79_199# VNB sky130_fd_pr__nfet_01v8 ad=0.10725 pd=0.98 as=0.169 ps=1.82 w=0.65 l=0.15
X6 a_79_199# a_222_93# VPWR VPB sky130_fd_pr__pfet_01v8_hvt ad=0.165 pd=1.33 as=0.3 ps=2.6 w=1 l=0.15
X7 a_544_297# A2 a_79_199# VPB sky130_fd_pr__pfet_01v8_hvt ad=0.105 pd=1.21 as=0.165 ps=1.33 w=1 l=0.15
X8 a_448_47# A1 VGND VNB sky130_fd_pr__nfet_01v8 ad=0.17225 pd=1.83 as=0.08775 ps=0.92 w=0.65 l=0.15
X9 VPWR a_79_199# X VPB sky130_fd_pr__pfet_01v8_hvt ad=0.18575 pd=1.415 as=0.26 ps=2.52 w=1 l=0.15
.ends

.subckt sky130_fd_sc_hd__clkbuf_4 VGND VPWR A X VPB VNB
X0 VPWR A a_27_47# VPB sky130_fd_pr__pfet_01v8_hvt ad=0.165 pd=1.33 as=0.265 ps=2.53 w=1 l=0.15
X1 VGND a_27_47# X VNB sky130_fd_pr__nfet_01v8 ad=0.1218 pd=1.42 as=0.0588 ps=0.7 w=0.42 l=0.15
X2 VGND a_27_47# X VNB sky130_fd_pr__nfet_01v8 ad=0.0588 pd=0.7 as=0.0588 ps=0.7 w=0.42 l=0.15
X3 X a_27_47# VPWR VPB sky130_fd_pr__pfet_01v8_hvt ad=0.14 pd=1.28 as=0.14 ps=1.28 w=1 l=0.15
X4 X a_27_47# VGND VNB sky130_fd_pr__nfet_01v8 ad=0.0588 pd=0.7 as=0.0588 ps=0.7 w=0.42 l=0.15
X5 VGND A a_27_47# VNB sky130_fd_pr__nfet_01v8 ad=0.07035 pd=0.755 as=0.1113 ps=1.37 w=0.42 l=0.15
X6 VPWR a_27_47# X VPB sky130_fd_pr__pfet_01v8_hvt ad=0.3 pd=2.6 as=0.14 ps=1.28 w=1 l=0.15
X7 X a_27_47# VGND VNB sky130_fd_pr__nfet_01v8 ad=0.0588 pd=0.7 as=0.07035 ps=0.755 w=0.42 l=0.15
X8 X a_27_47# VPWR VPB sky130_fd_pr__pfet_01v8_hvt ad=0.14 pd=1.28 as=0.165 ps=1.33 w=1 l=0.15
X9 VPWR a_27_47# X VPB sky130_fd_pr__pfet_01v8_hvt ad=0.14 pd=1.28 as=0.14 ps=1.28 w=1 l=0.15
.ends

.subckt sky130_fd_sc_hd__or2_1 VPB VNB VGND VPWR X A B
X0 VGND A a_68_297# VNB sky130_fd_pr__nfet_01v8 ad=0.10025 pd=0.985 as=0.0567 ps=0.69 w=0.42 l=0.15
X1 a_68_297# B VGND VNB sky130_fd_pr__nfet_01v8 ad=0.0567 pd=0.69 as=0.1092 ps=1.36 w=0.42 l=0.15
X2 X a_68_297# VGND VNB sky130_fd_pr__nfet_01v8 ad=0.169 pd=1.82 as=0.10025 ps=0.985 w=0.65 l=0.15
X3 VPWR A a_150_297# VPB sky130_fd_pr__pfet_01v8_hvt ad=0.14575 pd=1.335 as=0.0441 ps=0.63 w=0.42 l=0.15
X4 X a_68_297# VPWR VPB sky130_fd_pr__pfet_01v8_hvt ad=0.34 pd=2.68 as=0.14575 ps=1.335 w=1 l=0.15
X5 a_150_297# B a_68_297# VPB sky130_fd_pr__pfet_01v8_hvt ad=0.0441 pd=0.63 as=0.1092 ps=1.36 w=0.42 l=0.15
.ends

.subckt sky130_fd_sc_hd__and2b_1 X A_N B VGND VPWR VPB VNB
X0 VPWR B a_207_413# VPB sky130_fd_pr__pfet_01v8_hvt ad=0.2279 pd=1.74 as=0.0609 ps=0.71 w=0.42 l=0.15
X1 X a_207_413# VPWR VPB sky130_fd_pr__pfet_01v8_hvt ad=0.26 pd=2.52 as=0.2279 ps=1.74 w=1 l=0.15
X2 a_297_47# a_27_413# a_207_413# VNB sky130_fd_pr__nfet_01v8 ad=0.0504 pd=0.66 as=0.1092 ps=1.36 w=0.42 l=0.15
X3 X a_207_413# VGND VNB sky130_fd_pr__nfet_01v8 ad=0.169 pd=1.82 as=0.1013 ps=0.99 w=0.65 l=0.15
X4 a_207_413# a_27_413# VPWR VPB sky130_fd_pr__pfet_01v8_hvt ad=0.0609 pd=0.71 as=0.0714 ps=0.76 w=0.42 l=0.15
X5 VPWR A_N a_27_413# VPB sky130_fd_pr__pfet_01v8_hvt ad=0.0714 pd=0.76 as=0.1092 ps=1.36 w=0.42 l=0.15
X6 VGND B a_297_47# VNB sky130_fd_pr__nfet_01v8 ad=0.1013 pd=0.99 as=0.0504 ps=0.66 w=0.42 l=0.15
X7 a_27_413# A_N VGND VNB sky130_fd_pr__nfet_01v8 ad=0.1092 pd=1.36 as=0.1092 ps=1.36 w=0.42 l=0.15
.ends

.subckt sky130_fd_sc_hd__nor2_1 VPB VNB VGND VPWR A B Y
X0 VPWR A a_109_297# VPB sky130_fd_pr__pfet_01v8_hvt ad=0.26 pd=2.52 as=0.105 ps=1.21 w=1 l=0.15
X1 VGND A Y VNB sky130_fd_pr__nfet_01v8 ad=0.169 pd=1.82 as=0.08775 ps=0.92 w=0.65 l=0.15
X2 a_109_297# B Y VPB sky130_fd_pr__pfet_01v8_hvt ad=0.105 pd=1.21 as=0.26 ps=2.52 w=1 l=0.15
X3 Y B VGND VNB sky130_fd_pr__nfet_01v8 ad=0.08775 pd=0.92 as=0.169 ps=1.82 w=0.65 l=0.15
.ends

.subckt sky130_fd_sc_hd__and2b_2 VNB VPB VPWR VGND A_N X B
X0 VPWR a_212_413# X VPB sky130_fd_pr__pfet_01v8_hvt ad=0.26 pd=2.52 as=0.135 ps=1.27 w=1 l=0.15
X1 a_297_47# a_27_413# a_212_413# VNB sky130_fd_pr__nfet_01v8 ad=0.0567 pd=0.69 as=0.1092 ps=1.36 w=0.42 l=0.15
X2 X a_212_413# VPWR VPB sky130_fd_pr__pfet_01v8_hvt ad=0.135 pd=1.27 as=0.22895 ps=1.745 w=1 l=0.15
X3 X a_212_413# VGND VNB sky130_fd_pr__nfet_01v8 ad=0.08775 pd=0.92 as=0.101875 ps=0.99 w=0.65 l=0.15
X4 a_212_413# a_27_413# VPWR VPB sky130_fd_pr__pfet_01v8_hvt ad=0.0609 pd=0.71 as=0.07665 ps=0.785 w=0.42 l=0.15
X5 VPWR A_N a_27_413# VPB sky130_fd_pr__pfet_01v8_hvt ad=0.07665 pd=0.785 as=0.1092 ps=1.36 w=0.42 l=0.15
X6 VPWR B a_212_413# VPB sky130_fd_pr__pfet_01v8_hvt ad=0.22895 pd=1.745 as=0.0609 ps=0.71 w=0.42 l=0.15
X7 VGND B a_297_47# VNB sky130_fd_pr__nfet_01v8 ad=0.101875 pd=0.99 as=0.0567 ps=0.69 w=0.42 l=0.15
X8 VGND a_212_413# X VNB sky130_fd_pr__nfet_01v8 ad=0.1755 pd=1.84 as=0.08775 ps=0.92 w=0.65 l=0.15
X9 a_27_413# A_N VGND VNB sky130_fd_pr__nfet_01v8 ad=0.1092 pd=1.36 as=0.1092 ps=1.36 w=0.42 l=0.15
.ends

.subckt sky130_fd_sc_hd__decap_8 VPWR VGND VPB VNB
X0 VPWR VGND VPWR VPB sky130_fd_pr__pfet_01v8_hvt ad=0.2262 pd=2.26 as=0 ps=0 w=0.87 l=2.89
X1 VGND VPWR VGND VNB sky130_fd_pr__nfet_01v8 ad=0.143 pd=1.62 as=0 ps=0 w=0.55 l=2.89
.ends

.subckt sky130_fd_sc_hd__clkbuf_1 VGND VPWR X A VPB VNB
X0 VPWR a_75_212# X VPB sky130_fd_pr__pfet_01v8_hvt ad=0.11455 pd=1.08 as=0.2054 ps=2.1 w=0.79 l=0.15
X1 a_75_212# A VGND VNB sky130_fd_pr__nfet_01v8 ad=0.1352 pd=1.56 as=0.0754 ps=0.81 w=0.52 l=0.15
X2 a_75_212# A VPWR VPB sky130_fd_pr__pfet_01v8_hvt ad=0.2054 pd=2.1 as=0.11455 ps=1.08 w=0.79 l=0.15
X3 VGND a_75_212# X VNB sky130_fd_pr__nfet_01v8 ad=0.0754 pd=0.81 as=0.1352 ps=1.56 w=0.52 l=0.15
.ends

.subckt sky130_fd_sc_hd__o21ai_1 VGND VPWR A2 B1 Y A1 VPB VNB
X0 Y A2 a_109_297# VPB sky130_fd_pr__pfet_01v8_hvt ad=0.174 pd=1.39 as=0.105 ps=1.21 w=1 l=0.15
X1 VPWR B1 Y VPB sky130_fd_pr__pfet_01v8_hvt ad=0.182 pd=1.92 as=0.174 ps=1.39 w=0.7 l=0.15
X2 a_27_47# A2 VGND VNB sky130_fd_pr__nfet_01v8 ad=0.08775 pd=0.92 as=0.10725 ps=0.98 w=0.65 l=0.15
X3 Y B1 a_27_47# VNB sky130_fd_pr__nfet_01v8 ad=0.169 pd=1.82 as=0.08775 ps=0.92 w=0.65 l=0.15
X4 a_109_297# A1 VPWR VPB sky130_fd_pr__pfet_01v8_hvt ad=0.105 pd=1.21 as=0.26 ps=2.52 w=1 l=0.15
X5 VGND A1 a_27_47# VNB sky130_fd_pr__nfet_01v8 ad=0.10725 pd=0.98 as=0.169 ps=1.82 w=0.65 l=0.15
.ends

.subckt sky130_fd_sc_hd__nand2_1 VPB VNB VGND VPWR A Y B
X0 VPWR A Y VPB sky130_fd_pr__pfet_01v8_hvt ad=0.26 pd=2.52 as=0.135 ps=1.27 w=1 l=0.15
X1 Y A a_113_47# VNB sky130_fd_pr__nfet_01v8 ad=0.169 pd=1.82 as=0.08775 ps=0.92 w=0.65 l=0.15
X2 a_113_47# B VGND VNB sky130_fd_pr__nfet_01v8 ad=0.08775 pd=0.92 as=0.169 ps=1.82 w=0.65 l=0.15
X3 Y B VPWR VPB sky130_fd_pr__pfet_01v8_hvt ad=0.135 pd=1.27 as=0.26 ps=2.52 w=1 l=0.15
.ends

.subckt sky130_fd_sc_hd__o31a_1 X A1 A2 A3 B1 VPB VNB VGND VPWR
X0 a_103_199# B1 a_253_47# VNB sky130_fd_pr__nfet_01v8 ad=0.2015 pd=1.92 as=0.10725 ps=0.98 w=0.65 l=0.15
X1 VPWR a_103_199# X VPB sky130_fd_pr__pfet_01v8_hvt ad=0.195 pd=1.39 as=0.36 ps=2.72 w=1 l=0.15
X2 a_337_297# A2 a_253_297# VPB sky130_fd_pr__pfet_01v8_hvt ad=0.165 pd=1.33 as=0.135 ps=1.27 w=1 l=0.15
X3 a_103_199# A3 a_337_297# VPB sky130_fd_pr__pfet_01v8_hvt ad=0.2125 pd=1.425 as=0.165 ps=1.33 w=1 l=0.15
X4 a_253_297# A1 VPWR VPB sky130_fd_pr__pfet_01v8_hvt ad=0.135 pd=1.27 as=0.195 ps=1.39 w=1 l=0.15
X5 VPWR B1 a_103_199# VPB sky130_fd_pr__pfet_01v8_hvt ad=0.345 pd=2.69 as=0.2125 ps=1.425 w=1 l=0.15
X6 VGND a_103_199# X VNB sky130_fd_pr__nfet_01v8 ad=0.12675 pd=1.04 as=0.234 ps=2.02 w=0.65 l=0.15
X7 a_253_47# A1 VGND VNB sky130_fd_pr__nfet_01v8 ad=0.08775 pd=0.92 as=0.12675 ps=1.04 w=0.65 l=0.15
X8 a_253_47# A3 VGND VNB sky130_fd_pr__nfet_01v8 ad=0.10725 pd=0.98 as=0.10725 ps=0.98 w=0.65 l=0.15
X9 VGND A2 a_253_47# VNB sky130_fd_pr__nfet_01v8 ad=0.10725 pd=0.98 as=0.08775 ps=0.92 w=0.65 l=0.15
.ends

.subckt sky130_fd_sc_hd__a22o_1 VPWR VGND VPB VNB B1 A1 A2 X B2
X0 VPWR A2 a_109_297# VPB sky130_fd_pr__pfet_01v8_hvt ad=0.155 pd=1.31 as=0.16 ps=1.32 w=1 l=0.15
X1 a_27_297# B1 a_109_47# VNB sky130_fd_pr__nfet_01v8 ad=0.169 pd=1.82 as=0.07475 ps=0.88 w=0.65 l=0.15
X2 VGND A2 a_373_47# VNB sky130_fd_pr__nfet_01v8 ad=0.10075 pd=0.96 as=0.11375 ps=1 w=0.65 l=0.15
X3 X a_27_297# VPWR VPB sky130_fd_pr__pfet_01v8_hvt ad=0.26 pd=2.52 as=0.155 ps=1.31 w=1 l=0.15
X4 a_27_297# B1 a_109_297# VPB sky130_fd_pr__pfet_01v8_hvt ad=0.25285 pd=2.52 as=0.135 ps=1.27 w=1 l=0.15
X5 a_109_297# A1 VPWR VPB sky130_fd_pr__pfet_01v8_hvt ad=0.16 pd=1.32 as=0.2529 ps=2.52 w=1 l=0.15
X6 a_373_47# A1 a_27_297# VNB sky130_fd_pr__nfet_01v8 ad=0.11375 pd=1 as=0.169 ps=1.82 w=0.65 l=0.15
X7 X a_27_297# VGND VNB sky130_fd_pr__nfet_01v8 ad=0.169 pd=1.82 as=0.10075 ps=0.96 w=0.65 l=0.15
X8 a_109_297# B2 a_27_297# VPB sky130_fd_pr__pfet_01v8_hvt ad=0.135 pd=1.27 as=0.26 ps=2.52 w=1 l=0.15
X9 a_109_47# B2 VGND VNB sky130_fd_pr__nfet_01v8 ad=0.07475 pd=0.88 as=0.169 ps=1.82 w=0.65 l=0.15
.ends

.subckt sky130_fd_sc_hd__a21oi_2 VNB VPB VGND VPWR A2 A1 Y B1
X0 VGND A2 a_285_47# VNB sky130_fd_pr__nfet_01v8 ad=0.10725 pd=0.98 as=0.06825 ps=0.86 w=0.65 l=0.15
X1 VGND B1 Y VNB sky130_fd_pr__nfet_01v8 ad=0.26 pd=2.1 as=0.08775 ps=0.92 w=0.65 l=0.15
X2 Y A1 a_114_47# VNB sky130_fd_pr__nfet_01v8 ad=0.091 pd=0.93 as=0.089375 ps=0.925 w=0.65 l=0.15
X3 a_114_47# A2 VGND VNB sky130_fd_pr__nfet_01v8 ad=0.089375 pd=0.925 as=0.18525 ps=1.87 w=0.65 l=0.15
X4 a_27_297# B1 Y VPB sky130_fd_pr__pfet_01v8_hvt ad=0.36 pd=2.72 as=0.135 ps=1.27 w=1 l=0.15
X5 a_27_297# A1 VPWR VPB sky130_fd_pr__pfet_01v8_hvt ad=0.14 pd=1.28 as=0.14 ps=1.28 w=1 l=0.15
X6 Y B1 a_27_297# VPB sky130_fd_pr__pfet_01v8_hvt ad=0.135 pd=1.27 as=0.135 ps=1.27 w=1 l=0.15
X7 VPWR A2 a_27_297# VPB sky130_fd_pr__pfet_01v8_hvt ad=0.14 pd=1.28 as=0.28 ps=2.56 w=1 l=0.15
X8 a_27_297# A2 VPWR VPB sky130_fd_pr__pfet_01v8_hvt ad=0.135 pd=1.27 as=0.135 ps=1.27 w=1 l=0.15
X9 VPWR A1 a_27_297# VPB sky130_fd_pr__pfet_01v8_hvt ad=0.135 pd=1.27 as=0.14 ps=1.28 w=1 l=0.15
X10 a_285_47# A1 Y VNB sky130_fd_pr__nfet_01v8 ad=0.06825 pd=0.86 as=0.091 ps=0.93 w=0.65 l=0.15
X11 Y B1 VGND VNB sky130_fd_pr__nfet_01v8 ad=0.08775 pd=0.92 as=0.10725 ps=0.98 w=0.65 l=0.15
.ends

.subckt sky130_fd_sc_hd__nand2b_1 VPB VNB VGND VPWR A_N B Y
X0 VGND A_N a_27_93# VNB sky130_fd_pr__nfet_01v8 ad=0.10025 pd=0.985 as=0.1092 ps=1.36 w=0.42 l=0.15
X1 Y a_27_93# a_206_47# VNB sky130_fd_pr__nfet_01v8 ad=0.169 pd=1.82 as=0.08775 ps=0.92 w=0.65 l=0.15
X2 a_206_47# B VGND VNB sky130_fd_pr__nfet_01v8 ad=0.08775 pd=0.92 as=0.10025 ps=0.985 w=0.65 l=0.15
X3 VPWR a_27_93# Y VPB sky130_fd_pr__pfet_01v8_hvt ad=0.265 pd=2.53 as=0.135 ps=1.27 w=1 l=0.15
X4 Y B VPWR VPB sky130_fd_pr__pfet_01v8_hvt ad=0.135 pd=1.27 as=0.14575 ps=1.335 w=1 l=0.15
X5 VPWR A_N a_27_93# VPB sky130_fd_pr__pfet_01v8_hvt ad=0.14575 pd=1.335 as=0.1092 ps=1.36 w=0.42 l=0.15
.ends

.subckt sky130_fd_sc_hd__dlygate4sd3_1 X A VPB VNB VGND VPWR
X0 VPWR A a_49_47# VPB sky130_fd_pr__pfet_01v8_hvt ad=0.0567 pd=0.69 as=0.1092 ps=1.36 w=0.42 l=0.15
X1 VGND a_285_47# a_391_47# VNB sky130_fd_pr__nfet_01v8 ad=0.097 pd=0.975 as=0.1092 ps=1.36 w=0.42 l=0.5
X2 X a_391_47# VPWR VPB sky130_fd_pr__pfet_01v8_hvt ad=0.26 pd=2.52 as=0.14075 ps=1.325 w=1 l=0.15
X3 VGND A a_49_47# VNB sky130_fd_pr__nfet_01v8 ad=0.0567 pd=0.69 as=0.1092 ps=1.36 w=0.42 l=0.15
X4 VPWR a_285_47# a_391_47# VPB sky130_fd_pr__pfet_01v8_hvt ad=0.14075 pd=1.325 as=0.1092 ps=1.36 w=0.42 l=0.5
X5 a_285_47# a_49_47# VGND VNB sky130_fd_pr__nfet_01v8 ad=0.1092 pd=1.36 as=0.0567 ps=0.69 w=0.42 l=0.5
X6 a_285_47# a_49_47# VPWR VPB sky130_fd_pr__pfet_01v8_hvt ad=0.1092 pd=1.36 as=0.0567 ps=0.69 w=0.42 l=0.5
X7 X a_391_47# VGND VNB sky130_fd_pr__nfet_01v8 ad=0.169 pd=1.82 as=0.097 ps=0.975 w=0.65 l=0.15
.ends

.subckt sky130_fd_sc_hd__a21o_1 VPWR VGND VPB VNB A2 A1 B1 X
X0 a_81_21# B1 VGND VNB sky130_fd_pr__nfet_01v8 ad=0.089375 pd=0.925 as=0.25675 ps=1.44 w=0.65 l=0.15
X1 a_299_297# B1 a_81_21# VPB sky130_fd_pr__pfet_01v8_hvt ad=0.1375 pd=1.275 as=0.26 ps=2.52 w=1 l=0.15
X2 VPWR a_81_21# X VPB sky130_fd_pr__pfet_01v8_hvt ad=0.26 pd=2.52 as=0.26 ps=2.52 w=1 l=0.15
X3 VPWR A1 a_299_297# VPB sky130_fd_pr__pfet_01v8_hvt ad=0.14 pd=1.28 as=0.1375 ps=1.275 w=1 l=0.15
X4 VGND a_81_21# X VNB sky130_fd_pr__nfet_01v8 ad=0.25675 pd=1.44 as=0.169 ps=1.82 w=0.65 l=0.15
X5 VGND A2 a_384_47# VNB sky130_fd_pr__nfet_01v8 ad=0.17225 pd=1.83 as=0.091 ps=0.93 w=0.65 l=0.15
X6 a_299_297# A2 VPWR VPB sky130_fd_pr__pfet_01v8_hvt ad=0.265 pd=2.53 as=0.14 ps=1.28 w=1 l=0.15
X7 a_384_47# A1 a_81_21# VNB sky130_fd_pr__nfet_01v8 ad=0.091 pd=0.93 as=0.089375 ps=0.925 w=0.65 l=0.15
.ends

.subckt sky130_fd_sc_hd__o21a_1 VPB VNB VGND VPWR A1 A2 B1 X
X0 VPWR A1 a_382_297# VPB sky130_fd_pr__pfet_01v8_hvt ad=0.26 pd=2.52 as=0.1525 ps=1.305 w=1 l=0.15
X1 a_297_47# B1 a_79_21# VNB sky130_fd_pr__nfet_01v8 ad=0.10075 pd=0.96 as=0.169 ps=1.82 w=0.65 l=0.15
X2 a_297_47# A1 VGND VNB sky130_fd_pr__nfet_01v8 ad=0.169 pd=1.82 as=0.08775 ps=0.92 w=0.65 l=0.15
X3 VGND A2 a_297_47# VNB sky130_fd_pr__nfet_01v8 ad=0.08775 pd=0.92 as=0.10075 ps=0.96 w=0.65 l=0.15
X4 VPWR a_79_21# X VPB sky130_fd_pr__pfet_01v8_hvt ad=0.3275 pd=1.655 as=0.28 ps=2.56 w=1 l=0.15
X5 a_79_21# B1 VPWR VPB sky130_fd_pr__pfet_01v8_hvt ad=0.195 pd=1.39 as=0.3275 ps=1.655 w=1 l=0.15
X6 a_382_297# A2 a_79_21# VPB sky130_fd_pr__pfet_01v8_hvt ad=0.1525 pd=1.305 as=0.195 ps=1.39 w=1 l=0.15
X7 VGND a_79_21# X VNB sky130_fd_pr__nfet_01v8 ad=0.169 pd=1.82 as=0.169 ps=1.82 w=0.65 l=0.15
.ends

.subckt sky130_fd_sc_hd__a41o_2 VNB VPB VGND VPWR X A1 A2 A3 A4 B1
X0 a_381_297# A1 VPWR VPB sky130_fd_pr__pfet_01v8_hvt ad=0.26 pd=2.52 as=0.135 ps=1.27 w=1 l=0.15
X1 VPWR A2 a_381_297# VPB sky130_fd_pr__pfet_01v8_hvt ad=0.135 pd=1.27 as=0.215 ps=1.43 w=1 l=0.15
X2 a_465_47# A4 VGND VNB sky130_fd_pr__nfet_01v8 ad=0.08775 pd=0.92 as=0.08775 ps=0.92 w=0.65 l=0.15
X3 a_549_47# A3 a_465_47# VNB sky130_fd_pr__nfet_01v8 ad=0.13975 pd=1.08 as=0.08775 ps=0.92 w=0.65 l=0.15
X4 VPWR a_79_21# X VPB sky130_fd_pr__pfet_01v8_hvt ad=0.26 pd=2.52 as=0.135 ps=1.27 w=1 l=0.15
X5 VGND a_79_21# X VNB sky130_fd_pr__nfet_01v8 ad=0.169 pd=1.82 as=0.08775 ps=0.92 w=0.65 l=0.15
X6 a_665_47# A2 a_549_47# VNB sky130_fd_pr__nfet_01v8 ad=0.08775 pd=0.92 as=0.13975 ps=1.08 w=0.65 l=0.15
X7 a_381_297# A3 VPWR VPB sky130_fd_pr__pfet_01v8_hvt ad=0.215 pd=1.43 as=0.135 ps=1.27 w=1 l=0.15
X8 VPWR A4 a_381_297# VPB sky130_fd_pr__pfet_01v8_hvt ad=0.135 pd=1.27 as=0.135 ps=1.27 w=1 l=0.15
X9 a_381_297# B1 a_79_21# VPB sky130_fd_pr__pfet_01v8_hvt ad=0.135 pd=1.27 as=0.26 ps=2.52 w=1 l=0.15
X10 a_79_21# A1 a_665_47# VNB sky130_fd_pr__nfet_01v8 ad=0.169 pd=1.82 as=0.08775 ps=0.92 w=0.65 l=0.15
X11 VGND B1 a_79_21# VNB sky130_fd_pr__nfet_01v8 ad=0.08775 pd=0.92 as=0.169 ps=1.82 w=0.65 l=0.15
X12 X a_79_21# VPWR VPB sky130_fd_pr__pfet_01v8_hvt ad=0.135 pd=1.27 as=0.26 ps=2.52 w=1 l=0.15
X13 X a_79_21# VGND VNB sky130_fd_pr__nfet_01v8 ad=0.08775 pd=0.92 as=0.169 ps=1.82 w=0.65 l=0.15
.ends

.subckt sky130_fd_sc_hd__dfstp_1 VPB VNB VPWR VGND Q SET_B D CLK
X0 VGND a_652_21# a_586_47# VNB sky130_fd_pr__nfet_01v8 ad=0.0882 pd=0.84 as=0.06705 ps=0.75 w=0.42 l=0.15
X1 a_956_413# a_476_47# VPWR VPB sky130_fd_pr__pfet_01v8_hvt ad=0.0483 pd=0.65 as=0.0567 ps=0.69 w=0.42 l=0.15
X2 VPWR a_476_47# a_652_21# VPB sky130_fd_pr__pfet_01v8_hvt ad=0.0567 pd=0.69 as=0.0567 ps=0.69 w=0.42 l=0.15
X3 VPWR CLK a_27_47# VPB sky130_fd_pr__pfet_01v8_hvt ad=0.0864 pd=0.91 as=0.1664 ps=1.8 w=0.64 l=0.15
X4 a_586_47# a_193_47# a_476_47# VNB sky130_fd_pr__special_nfet_01v8 ad=0.06705 pd=0.75 as=0.072 ps=0.76 w=0.36 l=0.15
X5 a_1056_47# a_476_47# VGND VNB sky130_fd_pr__nfet_01v8 ad=0.0441 pd=0.63 as=0.1092 ps=1.36 w=0.42 l=0.15
X6 a_476_47# a_27_47# a_381_47# VNB sky130_fd_pr__special_nfet_01v8 ad=0.072 pd=0.76 as=0.0935 ps=0.965 w=0.36 l=0.15
X7 a_381_47# D VPWR VPB sky130_fd_pr__pfet_01v8_hvt ad=0.12495 pd=1.175 as=0.2184 ps=2.2 w=0.84 l=0.15
X8 a_652_21# SET_B VPWR VPB sky130_fd_pr__pfet_01v8_hvt ad=0.0567 pd=0.69 as=0.0798 ps=0.8 w=0.42 l=0.15
X9 a_1224_47# a_27_47# a_1032_413# VNB sky130_fd_pr__nfet_01v8 ad=0.0441 pd=0.63 as=0.0693 ps=0.75 w=0.42 l=0.15
X10 a_562_413# a_27_47# a_476_47# VPB sky130_fd_pr__pfet_01v8_hvt ad=0.0945 pd=0.87 as=0.0567 ps=0.69 w=0.42 l=0.15
X11 VGND a_1032_413# a_1602_47# VNB sky130_fd_pr__nfet_01v8 ad=0.097 pd=0.975 as=0.1092 ps=1.36 w=0.42 l=0.15
X12 VPWR a_1182_261# a_1140_413# VPB sky130_fd_pr__pfet_01v8_hvt ad=0.1092 pd=1.36 as=0.0441 ps=0.63 w=0.42 l=0.15