* Copyright 2020 The SkyWater PDK Authors
*
* Licensed under the Apache License, Version 2.0 (the "License");
* you may not use this file except in compliance with the License.
* You may obtain a copy of the License at
*
*     https://www.apache.org/licenses/LICENSE-2.0
*
* Unless required by applicable law or agreed to in writing, software
* distributed under the License is distributed on an "AS IS" BASIS,
* WITHOUT WARRANTIES OR CONDITIONS OF ANY KIND, either express or implied.
* See the License for the specific language governing permissions and
* limitations under the License.

* SKY130 Spice File.
.param sky130_fd_pr__pfet_01v8__toxe_slope_spectre = 0.0
.param sky130_fd_pr__pfet_01v8__vth0_slope_spectre = 0.0
.param sky130_fd_pr__pfet_01v8__voff_slope_spectre = 0.0
.param sky130_fd_pr__pfet_01v8__nfactor_slope_spectre = 0.0
* statistics {
*   process {
*   }
*   mismatch {
*     vary sky130_fd_pr__pfet_01v8__toxe_slope_spectre dist=gauss std = 1.0
*     vary sky130_fd_pr__pfet_01v8__vth0_slope_spectre dist=gauss std = 1.0
*     vary sky130_fd_pr__pfet_01v8__voff_slope_spectre dist=gauss std = 1.0
*     vary sky130_fd_pr__pfet_01v8__nfactor_slope_spectre dist=gauss std = 1.0
*   }
* }
.subckt  sky130_fd_pr__pfet_01v8 d g s b
+ 
.param  l = 1 w = 1 ad = 0 as = 0 pd = 0 ps = 0 nrd = 0 nrs = 0 sa = 0 sb = 0 sd = 0 mult = 1 nf = 1.0
msky130_fd_pr__pfet_01v8 d g s b sky130_fd_pr__pfet_01v8__model l = {l} w = {w} ad = {ad} as = {as} pd = {pd} ps = {ps} nrd = {nrd} nrs = {nrs} sa = {sa} sb = {sb} sd = {sd} nf = {nf}
.model sky130_fd_pr__pfet_01v8__model.0 pmos
* DC IV MOS Parameters
+ lmin = 2.0e-05 lmax = 1.0e-04 wmin = 7e-06 wmax = 1.0e-4
+ level = 54.0
+ tnom = 30.0
+ version = 4.5
+ toxm = 4.23e-9
+ xj = 1.5e-7
+ lln = 1.0
+ lwn = 1.0
+ wln = 1.0
+ wwn = 1.0
+ lint = -2.61215e-8
+ ll = 0.0
+ lw = 0.0
+ lwl = 0.0
+ wint = 2.98239e-8
+ wl = 0.0
+ ww = 0.0
+ wwl = 0.0
+ xl = 0.0
+ xw = 0.0
+ mobmod = 0.0
+ binunit = 2.0
+ dwg = -5.722e-9
+ dwb = -1.7864e-8
* BSIM4 - Model Selectors
+ igcmod = 0.0
+ igbmod = 0.0
+ rgatemod = 0.0
+ rbodymod = 1.0
+ trnqsmod = 0.0
+ acnqsmod = 0.0
+ fnoimod = 1.0
+ tnoimod = 1.0
+ permod = 1.0
+ geomod = 0.0
+ rdsmod = 0.0
+ tempmod = 0.0
+ lintnoi = -2.0e-7
+ vfbsdoff = 0.0
+ lambda = 0.0
+ vtl = 0.0
+ lc = 5.0e-9
+ xn = 3.0
+ rnoia = 0.69
+ rnoib = 0.34
+ tnoia = 25.0e+6
+ tnoib = .0e-6
* BSIM4 - Process Parameters
+ epsrox = 3.9
+ toxe = {4.384395e-09+sky130_fd_pr__pfet_01v8__toxe_slope_spectre*(4.384395e-09*(sky130_fd_pr__pfet_01v8__toxe_slope/sqrt(l*w*mult)))}
+ dtox = 0.0
+ ndep = 1.7000000000000000e+17
+ nsd = 1.0e+20
+ rshg = 0.1
+ rsh = 1.0
* Threshold Voltage Parameters
+ vth0 = {-1.069709+sky130_fd_pr__pfet_01v8__vth0_slope_spectre*(sky130_fd_pr__pfet_01v8__vth0_slope/sqrt(l*w*mult))}
+ k1 = 0.43448553
+ k2 = 0.017927346
+ k3 = -15.845
+ dvt0 = 4.4955
+ dvt1 = 0.294
+ dvt2 = 0.015
+ dvt0w = -4.9772
+ dvt1w = 1147200.0
+ dvt2w = -0.00896
+ w0 = 0.0
+ k3b = 2.0
* NEW BSIM4 Parameters for Level 54
+ phin = 0.0
+ lpe0 = 0.0
+ lpeb = 0.0
+ vbm = -3.0
+ dvtp0 = 0.0
+ dvtp1 = 0.0
* Mobility Parameters
+ vsat = 160312.5
+ ua = -5.6228131e-10
+ ub = 1.00718446e-18
+ uc = -6.6549964e-11
+ rdsw = 547.88
+ prwb = -0.32348
+ prwg = 0.1376
+ wr = 1.0
+ u0 = 0.0106298
+ a0 = 1.34499
+ keta = 0.0051290095
+ a1 = 0.0
+ a2 = 0.9995
+ ags = 0.1373328
+ b0 = 0.0
+ b1 = 0.0
* BSIM4 - Mobility Parameters
+ eu = 1.67
+ rdswmin = 0.0
+ rdw = 0.0
+ rdwmin = 0.0
+ rsw = 0.0
+ rswmin = 0.0
* Subthreshold Current Parameters
+ voff = {-0.23556545+sky130_fd_pr__pfet_01v8__voff_slope_spectre*(sky130_fd_pr__pfet_01v8__voff_slope/sqrt(l*w*mult))}
+ nfactor = {1.3238158+sky130_fd_pr__pfet_01v8__nfactor_slope_spectre*(sky130_fd_pr__pfet_01v8__nfactor_slope/sqrt(l*w*mult))}
+ up = 0.0
+ ud = 0.0
+ lp = 1.0
+ tvfbsdoff = 0.0
+ tvoff = 0.0
+ cit = 1.0e-5
+ cdsc = 0.00013
+ cdscb = 0.00078
+ cdscd = 0.0
+ eta0 = 0.08
+ etab = -0.07
+ dsub = 0.56
* BSIM4 - Sub-threshold parameters
+ voffl = 0.0
+ minv = 0.0
* Rout Parameters
+ pclm = 0.0015228006
+ pdiblc1 = 0.39
+ pdiblc2 = 0.0029632464
+ pdiblcb = -0.025
+ drout = 0.56
+ pscbe1 = 800000000.0
+ pscbe2 = 9.3760948e-9
+ pvag = 0.0
+ delta = 0.01
+ alpha0 = 1.0e-10
+ alpha1 = 1.0e-10
+ beta0 = 4.6464006
* BSIM4 - Rout Parameters
+ fprout = 0.0
+ pdits = 0.0
+ pditsl = 0.0
+ pditsd = 0.0
* BSIM4 - Gate Induced Drain Leakage Model Parameters
+ agidl = 1.0e-10
+ bgidl = 1181082000.0
+ cgidl = 300.0
+ egidl = 0.1
* BSIM4 - Gate Leakage Current Parameters
+ aigbacc = 0.43
+ bigbacc = 0.054
+ cigbacc = 0.075
+ nigbacc = 1.0
+ aigbinv = 0.35
+ bigbinv = 0.03
+ cigbinv = 0.006
+ eigbinv = 1.1
+ nigbinv = 3.0
+ aigc = 0.43
+ bigc = 0.054
+ cigc = 0.075
+ nigc = 1.0
+ aigsd = 0.43
+ bigsd = 0.054
+ cigsd = 0.075
+ dlcig = 0.0
+ poxedge = 1.0
+ pigcd = 1.0
+ ntox = 1.0
+ toxref = 4.23e-9
* Temperature Effects Parameters
+ kt1 = -0.4485
+ kt2 = -0.0075706
+ at = 90900.0
+ ute = -0.33954
+ ua1 = 1.6104e-9
+ ub1 = -5.609e-19
+ uc1 = -1.0858e-10
+ kt1l = 0.0
+ prt = 0.0
* BSIM4 - High Speed RF Model Parameters
+ xrcrg1 = 12.0
+ xrcrg2 = 1.0
+ rbpb = 50.0
+ rbpd = 50.0
+ rbps = 50.0
+ rbdb = 50.0
+ rbsb = 50.0
+ gbmin = 1.0e-12
* BSIM4 - Flicker and Thermal Noise Parameters
+ noia = 1.5e+42
+ noib = 0.0
+ noic = 0.0
+ em = 41000000.0
+ af = 1.0
+ ef = 1.0
+ kf = 0.0
+ ntnoi = 1.0
* BSIM4 - Layout Dependent Parasitic Model Parameters
+ dmcg = 0.0
+ dmcgt = 0.0
+ dmdg = 0.0
+ xgw = 0.0
+ xgl = 0.0
+ ngcon = 1.0
* Diode DC IV Parameters
* BSIM4 - Diode DC IV parameters
+ diomod = 1.0
+ njs = 1.3632
+ jss = 2.1483e-5
+ jsws = 8.04e-10
+ xtis = 5.2
+ bvs = 12.69
+ xjbvs = 1.0
+ ijthsrev = 0.1
+ ijthsfwd = 0.1
* Diode and FET Capacitance Parameters
+ tpb = 0.0020386
+ tpbsw = 0.001246
+ tpbswg = 0.0
+ tcj = 0.0012407
+ tcjsw = 0.00037357
+ tcjswg = 2.0e-12
+ cgdo = 6.07365e-11
+ cgso = 6.07365e-11
+ cgbo = 0.0
+ capmod = 2.0
+ xpart = 0.0
+ cgsl = 1.10485215e-11
+ cgdl = 1.10485215e-11
+ cf = 1.2e-11
+ clc = 1.0e-7
+ cle = 0.6
+ dlc = -1.51275e-8
+ dwc = 2.252e-8
+ vfbcv = -0.14469
+ acde = 0.8
+ moin = 18.13
+ noff = 3.9
+ voffcv = -0.10701
+ ngate = 1.0e+23
+ lwc = 0.0
+ llc = 0.0
+ lwlc = 0.0
+ wlc = 0.0
+ wwc = 0.0
+ wwlc = 0.0
* BSIM4 - FET and Diode capacitance parameters
+ ckappas = 0.6
+ cjs = 0.000787089375
+ mjs = 0.34629
+ pbs = 0.6587
+ cjsws = 1.05469e-10
+ mjsws = 0.29781
+ pbsws = 0.7418
+ cjswgs = 2.5506845e-10
+ mjswgs = 0.9274
+ pbswgs = 1.4338
* Stress Parameters
+ saref = 3.0e-6
+ sbref = 3.0e-6
+ wlod = {0+sky130_fd_pr__pfet_01v8__wlod_diff}
+ kvth0 = {0+sky130_fd_pr__pfet_01v8__kvth0_diff}
+ lkvth0 = {0+sky130_fd_pr__pfet_01v8__lkvth0_diff}
+ wkvth0 = {0+sky130_fd_pr__pfet_01v8__wkvth0_diff}
+ pkvth0 = 0.0
+ llodvth = 0.0
+ wlodvth = 1.0
+ stk2 = 0.0
+ lodk2 = 1.0
+ lodeta0 = 1.0
+ ku0 = {0+sky130_fd_pr__pfet_01v8__ku0_diff}
+ lku0 = {0+sky130_fd_pr__pfet_01v8__lku0_diff}
+ wku0 = {0+sky130_fd_pr__pfet_01v8__wku0_diff}
+ pku0 = 0.0
+ llodku0 = 0.0
+ wlodku0 = 1.0
+ kvsat = {0+sky130_fd_pr__pfet_01v8__kvsat_diff}
+ steta0 = 0.0
+ tku0 = 0.0
.model sky130_fd_pr__pfet_01v8__model.1 pmos
* DC IV MOS Parameters
+ lmin = 8e-06 lmax = 2.0e-05 wmin = 7e-06 wmax = 1.0e-4
+ level = 54.0
+ tnom = 30.0
+ version = 4.5
+ toxm = 4.23e-9
+ xj = 1.5e-7
+ lln = 1.0
+ lwn = 1.0
+ wln = 1.0
+ wwn = 1.0
+ lint = -2.61215e-8
+ ll = 0.0
+ lw = 0.0
+ lwl = 0.0
+ wint = 2.98239e-8
+ wl = 0.0
+ ww = 0.0
+ wwl = 0.0
+ xl = 0.0
+ xw = 0.0
+ mobmod = 0.0
+ binunit = 2.0
+ dwg = -5.722e-9
+ dwb = -1.7864e-8
* BSIM4 - Model Selectors
+ igcmod = 0.0
+ igbmod = 0.0
+ rgatemod = 0.0
+ rbodymod = 1.0
+ trnqsmod = 0.0
+ acnqsmod = 0.0
+ fnoimod = 1.0
+ tnoimod = 1.0
+ permod = 1.0
+ geomod = 0.0
+ rdsmod = 0.0
+ tempmod = 0.0
+ lintnoi = -2.0e-7
+ vfbsdoff = 0.0
+ lambda = 0.0
+ vtl = 0.0
+ lc = 5.0e-9
+ xn = 3.0
+ rnoia = 0.69
+ rnoib = 0.34
+ tnoia = 25.0e+6
+ tnoib = .0e-6
* BSIM4 - Process Parameters
+ epsrox = 3.9
+ toxe = {4.384395e-09+sky130_fd_pr__pfet_01v8__toxe_slope_spectre*(4.384395e-09*(sky130_fd_pr__pfet_01v8__toxe_slope/sqrt(l*w*mult)))}
+ dtox = 0.0
+ ndep = 1.7000000000000000e+17
+ nsd = 1.0e+20
+ rshg = 0.1
+ rsh = 1.0
* Threshold Voltage Parameters
+ vth0 = {-1.069709+sky130_fd_pr__pfet_01v8__vth0_slope_spectre*(sky130_fd_pr__pfet_01v8__vth0_slope/sqrt(l*w*mult))}
+ k1 = 0.43448553
+ k2 = 0.017927346
+ k3 = -15.845
+ dvt0 = 4.4955
+ dvt1 = 0.294
+ dvt2 = 0.015
+ dvt0w = -4.9772
+ dvt1w = 1147200.0
+ dvt2w = -0.00896
+ w0 = 0.0
+ k3b = 2.0
* NEW BSIM4 Parameters for Level 54
+ phin = 0.0
+ lpe0 = 0.0
+ lpeb = 0.0
+ vbm = -3.0
+ dvtp0 = 0.0
+ dvtp1 = 0.0
* Mobility Parameters
+ vsat = 160312.5
+ ua = -5.6228131e-10
+ ub = 1.00718446e-18
+ uc = -6.6549964e-11
+ rdsw = 547.88
+ prwb = -0.32348
+ prwg = 0.1376
+ wr = 1.0
+ u0 = 0.0106298
+ a0 = 1.34499
+ keta = 0.0051290095
+ a1 = 0.0
+ a2 = 0.9995
+ ags = 0.1373328
+ b0 = 0.0
+ b1 = 0.0
* BSIM4 - Mobility Parameters
+ eu = 1.67
+ rdswmin = 0.0
+ rdw = 0.0
+ rdwmin = 0.0
+ rsw = 0.0
+ rswmin = 0.0
* Subthreshold Current Parameters
+ voff = {-0.23556545+sky130_fd_pr__pfet_01v8__voff_slope_spectre*(sky130_fd_pr__pfet_01v8__voff_slope/sqrt(l*w*mult))}
+ nfactor = {1.3238158+sky130_fd_pr__pfet_01v8__nfactor_slope_spectre*(sky130_fd_pr__pfet_01v8__nfactor_slope/sqrt(l*w*mult))}
+ up = 0.0
+ ud = 0.0
+ lp = 1.0
+ tvfbsdoff = 0.0
+ tvoff = 0.0
+ cit = 1.0e-5
+ cdsc = 0.00013
+ cdscb = 0.00078
+ cdscd = 0.0
+ eta0 = 0.08
+ etab = -0.07
+ dsub = 0.56
* BSIM4 - Sub-threshold parameters
+ voffl = 0.0
+ minv = 0.0
* Rout Parameters
+ pclm = 0.0015228006
+ pdiblc1 = 0.39
+ pdiblc2 = 0.0029632464
+ pdiblcb = -0.025
+ drout = 0.56
+ pscbe1 = 800000000.0
+ pscbe2 = 9.3760948e-9
+ pvag = 0.0
+ delta = 0.01
+ alpha0 = 1.0e-10
+ alpha1 = 1.0e-10
+ beta0 = 4.6464006
* BSIM4 - Rout Parameters
+ fprout = 0.0
+ pdits = 0.0
+ pditsl = 0.0
+ pditsd = 0.0
* BSIM4 - Gate Induced Drain Leakage Model Parameters
+ agidl = 1.0e-10
+ bgidl = 1181082000.0
+ cgidl = 300.0
+ egidl = 0.1
* BSIM4 - Gate Leakage Current Parameters
+ aigbacc = 0.43
+ bigbacc = 0.054
+ cigbacc = 0.075
+ nigbacc = 1.0
+ aigbinv = 0.35
+ bigbinv = 0.03
+ cigbinv = 0.006
+ eigbinv = 1.1
+ nigbinv = 3.0
+ aigc = 0.43
+ bigc = 0.054
+ cigc = 0.075
+ nigc = 1.0
+ aigsd = 0.43
+ bigsd = 0.054
+ cigsd = 0.075
+ dlcig = 0.0
+ poxedge = 1.0
+ pigcd = 1.0
+ ntox = 1.0
+ toxref = 4.23e-9
* Temperature Effects Parameters
+ kt1 = -0.4485
+ kt2 = -0.0075706
+ at = 90900.0
+ ute = -0.33954
+ ua1 = 1.6104e-9
+ ub1 = -5.609e-19
+ uc1 = -1.0858e-10
+ kt1l = 0.0
+ prt = 0.0
* BSIM4 - High Speed RF Model Parameters
+ xrcrg1 = 12.0
+ xrcrg2 = 1.0
+ rbpb = 50.0
+ rbpd = 50.0
+ rbps = 50.0
+ rbdb = 50.0
+ rbsb = 50.0
+ gbmin = 1.0e-12
* BSIM4 - Flicker and Thermal Noise Parameters
+ noia = 1.5e+42
+ noib = 0.0
+ noic = 0.0
+ em = 41000000.0
+ af = 1.0
+ ef = 1.0
+ kf = 0.0
+ ntnoi = 1.0
* BSIM4 - Layout Dependent Parasitic Model Parameters
+ dmcg = 0.0
+ dmcgt = 0.0
+ dmdg = 0.0
+ xgw = 0.0
+ xgl = 0.0
+ ngcon = 1.0
* Diode DC IV Parameters
* BSIM4 - Diode DC IV parameters
+ diomod = 1.0
+ njs = 1.3632
+ jss = 2.1483e-5
+ jsws = 8.04e-10
+ xtis = 5.2
+ bvs = 12.69
+ xjbvs = 1.0
+ ijthsrev = 0.1
+ ijthsfwd = 0.1
* Diode and FET Capacitance Parameters
+ tpb = 0.0020386
+ tpbsw = 0.001246
+ tpbswg = 0.0
+ tcj = 0.0012407
+ tcjsw = 0.00037357
+ tcjswg = 2.0e-12
+ cgdo = 6.07365e-11
+ cgso = 6.07365e-11
+ cgbo = 0.0
+ capmod = 2.0
+ xpart = 0.0
+ cgsl = 1.10485215e-11
+ cgdl = 1.10485215e-11
+ cf = 1.2e-11
+ clc = 1.0e-7
+ cle = 0.6
+ dlc = -1.51275e-8
+ dwc = 2.252e-8
+ vfbcv = -0.14469
+ acde = 0.8
+ moin = 18.13
+ noff = 3.9
+ voffcv = -0.10701
+ ngate = 1.0e+23
+ lwc = 0.0
+ llc = 0.0
+ lwlc = 0.0
+ wlc = 0.0
+ wwc = 0.0
+ wwlc = 0.0
* BSIM4 - FET and Diode capacitance parameters
+ ckappas = 0.6
+ cjs = 0.000787089375
+ mjs = 0.34629
+ pbs = 0.6587
+ cjsws = 1.05469e-10
+ mjsws = 0.29781
+ pbsws = 0.7418
+ cjswgs = 2.5506845e-10
+ mjswgs = 0.9274
+ pbswgs = 1.4338
* Stress Parameters
+ saref = 3.0e-6
+ sbref = 3.0e-6
+ wlod = {0+sky130_fd_pr__pfet_01v8__wlod_diff}
+ kvth0 = {0+sky130_fd_pr__pfet_01v8__kvth0_diff}
+ lkvth0 = {0+sky130_fd_pr__pfet_01v8__lkvth0_diff}
+ wkvth0 = {0+sky130_fd_pr__pfet_01v8__wkvth0_diff}
+ pkvth0 = 0.0
+ llodvth = 0.0
+ wlodvth = 1.0
+ stk2 = 0.0
+ lodk2 = 1.0
+ lodeta0 = 1.0
+ ku0 = {0+sky130_fd_pr__pfet_01v8__ku0_diff}
+ lku0 = {0+sky130_fd_pr__pfet_01v8__lku0_diff}
+ wku0 = {0+sky130_fd_pr__pfet_01v8__wku0_diff}
+ pku0 = 0.0
+ llodku0 = 0.0
+ wlodku0 = 1.0
+ kvsat = {0+sky130_fd_pr__pfet_01v8__kvsat_diff}
+ steta0 = 0.0
+ tku0 = 0.0
.model sky130_fd_pr__pfet_01v8__model.2 pmos
* DC IV MOS Parameters
+ lmin = 4e-06 lmax = 8e-06 wmin = 7e-06 wmax = 1.0e-4
+ level = 54.0
+ tnom = 30.0
+ version = 4.5
+ toxm = 4.23e-9
+ xj = 1.5e-7
+ lln = 1.0
+ lwn = 1.0
+ wln = 1.0
+ wwn = 1.0
+ lint = -2.61215e-8
+ ll = 0.0
+ lw = 0.0
+ lwl = 0.0
+ wint = 2.98239e-8
+ wl = 0.0
+ ww = 0.0
+ wwl = 0.0
+ xl = 0.0
+ xw = 0.0
+ mobmod = 0.0
+ binunit = 2.0
+ dwg = -5.722e-9
+ dwb = -1.7864e-8
* BSIM4 - Model Selectors
+ igcmod = 0.0
+ igbmod = 0.0
+ rgatemod = 0.0
+ rbodymod = 1.0
+ trnqsmod = 0.0
+ acnqsmod = 0.0
+ fnoimod = 1.0
+ tnoimod = 1.0
+ permod = 1.0
+ geomod = 0.0
+ rdsmod = 0.0
+ tempmod = 0.0
+ lintnoi = -2.0e-7
+ vfbsdoff = 0.0
+ lambda = 0.0
+ vtl = 0.0
+ lc = 5.0e-9
+ xn = 3.0
+ rnoia = 0.69
+ rnoib = 0.34
+ tnoia = 25.0e+6
+ tnoib = .0e-6
* BSIM4 - Process Parameters
+ epsrox = 3.9
+ toxe = {4.384395e-09+sky130_fd_pr__pfet_01v8__toxe_slope_spectre*(4.384395e-09*(sky130_fd_pr__pfet_01v8__toxe_slope/sqrt(l*w*mult)))}
+ dtox = 0.0
+ ndep = 1.7000000000000000e+17
+ nsd = 1.0e+20
+ rshg = 0.1
+ rsh = 1.0
* Threshold Voltage Parameters
+ vth0 = {-1.07256076601125+sky130_fd_pr__pfet_01v8__vth0_slope_spectre*(sky130_fd_pr__pfet_01v8__vth0_slope/sqrt(l*w*mult))} lvth0 = 2.29631129017263e-8
+ k1 = 0.438155474264772 lk1 = -2.95512830164046e-8
+ k2 = 0.016420547806151 lk2 = 1.21331052088333e-8
+ k3 = -15.845
+ dvt0 = 4.4955
+ dvt1 = 0.294
+ dvt2 = 0.015
+ dvt0w = -4.9772
+ dvt1w = 1147200.0
+ dvt2w = -0.00896
+ w0 = 0.0
+ k3b = 2.0
* NEW BSIM4 Parameters for Level 54
+ phin = 0.0
+ lpe0 = 0.0
+ lpeb = 0.0
+ vbm = -3.0
+ dvtp0 = 0.0
+ dvtp1 = 0.0
* Mobility Parameters
+ vsat = 268583.36765625 lvsat = -0.871823336188966
+ ua = -5.73170102295907e-10 lua = 8.76792015431752e-17
+ ub = 1.02351022777387e-18 lub = -1.31459049276751e-25
+ uc = -7.3265596390909e-11 luc = 5.40759039102703e-17
+ rdsw = 547.88
+ prwb = -0.32348
+ prwg = 0.1376
+ wr = 1.0
+ u0 = 0.01053518012595 lu0 = 7.61902218480005e-10
+ a0 = 1.47724609397325 la0 = -1.06495820690344e-6
+ keta = 0.0215551457611434 lketa = -1.32267240725838e-07 wketa = 1.32348898008484e-23
+ a1 = 0.0
+ a2 = 1.201605619625 la2 = -1.62740356088607e-6
+ ags = 0.0295086516120699 lags = 8.68226244087671e-7
+ b0 = 0.0
+ b1 = 0.0
* BSIM4 - Mobility Parameters
+ eu = 1.67
+ rdswmin = 0.0
+ rdw = 0.0
+ rdwmin = 0.0
+ rsw = 0.0
+ rswmin = 0.0
* Subthreshold Current Parameters
+ voff = {-0.242968604173382+sky130_fd_pr__pfet_01v8__voff_slope_spectre*(sky130_fd_pr__pfet_01v8__voff_slope/sqrt(l*w*mult))} lvoff = 5.96119963705402e-8
+ nfactor = {1.15676988289277+sky130_fd_pr__pfet_01v8__nfactor_slope_spectre*(sky130_fd_pr__pfet_01v8__nfactor_slope/sqrt(l*w*mult))} lnfactor = 1.34509431670523e-6
+ up = 0.0
+ ud = 0.0
+ lp = 1.0
+ tvfbsdoff = 0.0
+ tvoff = 0.0
+ cit = 1.0e-5
+ cdsc = 0.00013
+ cdscb = 0.00078
+ cdscd = 0.0
+ eta0 = 0.08
+ etab = -0.07
+ dsub = 0.56
* BSIM4 - Sub-threshold parameters
+ voffl = 0.0
+ minv = 0.0
* Rout Parameters
+ pclm = -0.436220819781416 lpclm = 3.52481800301092e-06 wpclm = 1.32348898008484e-22 ppclm = -8.45658890396925e-28
+ pdiblc1 = 0.39
+ pdiblc2 = 0.00580619790136215 lpdiblc2 = -2.28921363261828e-8
+ pdiblcb = -0.025
+ drout = 0.56
+ pscbe1 = 800000000.0
+ pscbe2 = 1.01463321822624e-08 lpscbe2 = -6.20213856966074e-15
+ pvag = 0.0
+ delta = 0.01
+ alpha0 = 1.0e-10
+ alpha1 = 1.0e-10
+ beta0 = 3.23603180931265 lbeta0 = 1.13566322222307e-5
* BSIM4 - Rout Parameters
+ fprout = 0.0
+ pdits = 0.0
+ pditsl = 0.0
+ pditsd = 0.0
* BSIM4 - Gate Induced Drain Leakage Model Parameters
+ agidl = 8.41723541969075e-11 lagidl = 1.27448050124431e-16
+ bgidl = 1364529066.7315 lbgidl = -1477.16035895925
+ cgidl = 300.0
+ egidl = 0.1
* BSIM4 - Gate Leakage Current Parameters
+ aigbacc = 0.43
+ bigbacc = 0.054
+ cigbacc = 0.075
+ nigbacc = 1.0
+ aigbinv = 0.35
+ bigbinv = 0.03
+ cigbinv = 0.006
+ eigbinv = 1.1
+ nigbinv = 3.0
+ aigc = 0.43
+ bigc = 0.054
+ cigc = 0.075
+ nigc = 1.0
+ aigsd = 0.43
+ bigsd = 0.054
+ cigsd = 0.075
+ dlcig = 0.0
+ poxedge = 1.0
+ pigcd = 1.0
+ ntox = 1.0
+ toxref = 4.23e-9
* Temperature Effects Parameters
+ kt1 = -0.431471725249045 lkt1 = -1.37115806165454e-7
+ kt2 = 0.00990843714472826 lkt2 = -1.40745454495378e-7
+ at = 87841.8025997225 lat = 0.0246253486090028
+ ute = -0.47523588096623 lute = 1.09265620763916e-6
+ ua1 = 1.22154240555877e-09 lua1 = 3.13117584283619e-15
+ ub1 = -2.9782157667176e-19 lub1 = -2.11837139269586e-24
+ uc1 = -8.818088717071e-11 luc1 = -1.64258613485861e-16
+ kt1l = 0.0
+ prt = 0.0
* BSIM4 - High Speed RF Model Parameters
+ xrcrg1 = 12.0
+ xrcrg2 = 1.0
+ rbpb = 50.0
+ rbpd = 50.0
+ rbps = 50.0
+ rbdb = 50.0
+ rbsb = 50.0
+ gbmin = 1.0e-12
* BSIM4 - Flicker and Thermal Noise Parameters
+ noia = 1.5e+42
+ noib = 0.0
+ noic = 0.0
+ em = 41000000.0
+ af = 1.0
+ ef = 1.0
+ kf = 0.0
+ ntnoi = 1.0
* BSIM4 - Layout Dependent Parasitic Model Parameters
+ dmcg = 0.0
+ dmcgt = 0.0
+ dmdg = 0.0
+ xgw = 0.0
+ xgl = 0.0
+ ngcon = 1.0
* Diode DC IV Parameters
* BSIM4 - Diode DC IV parameters
+ diomod = 1.0
+ njs = 1.3632
+ jss = 2.1483e-5
+ jsws = 8.04e-10
+ xtis = 5.2
+ bvs = 12.69
+ xjbvs = 1.0
+ ijthsrev = 0.1
+ ijthsfwd = 0.1
* Diode and FET Capacitance Parameters
+ tpb = 0.0020386
+ tpbsw = 0.001246
+ tpbswg = 0.0
+ tcj = 0.0012407
+ tcjsw = 0.00037357
+ tcjswg = 2.0e-12
+ cgdo = 6.07365e-11
+ cgso = 6.07365e-11
+ cgbo = 0.0
+ capmod = 2.0
+ xpart = 0.0
+ cgsl = 1.10485215e-11
+ cgdl = 1.10485215e-11
+ cf = 1.2e-11
+ clc = 1.0e-7
+ cle = 0.6
+ dlc = -1.51275e-8
+ dwc = 2.252e-8
+ vfbcv = -0.14469
+ acde = 0.8
+ moin = 18.13
+ noff = 3.9
+ voffcv = -0.10701
+ ngate = 1.0e+23
+ lwc = 0.0
+ llc = 0.0
+ lwlc = 0.0
+ wlc = 0.0
+ wwc = 0.0
+ wwlc = 0.0
* BSIM4 - FET and Diode capacitance parameters
+ ckappas = 0.6
+ cjs = 0.000787089375
+ mjs = 0.34629
+ pbs = 0.6587
+ cjsws = 1.05469e-10
+ mjsws = 0.29781
+ pbsws = 0.7418
+ cjswgs = 2.5506845e-10
+ mjswgs = 0.9274
+ pbswgs = 1.4338
* Stress Parameters
+ saref = 3.0e-6
+ sbref = 3.0e-6
+ wlod = {0+sky130_fd_pr__pfet_01v8__wlod_diff}
+ kvth0 = {0+sky130_fd_pr__pfet_01v8__kvth0_diff}
+ lkvth0 = {0+sky130_fd_pr__pfet_01v8__lkvth0_diff}
+ wkvth0 = {0+sky130_fd_pr__pfet_01v8__wkvth0_diff}
+ pkvth0 = 0.0
+ llodvth = 0.0
+ wlodvth = 1.0
+ stk2 = 0.0
+ lodk2 = 1.0
+ lodeta0 = 1.0
+ ku0 = {0+sky130_fd_pr__pfet_01v8__ku0_diff}
+ lku0 = {0+sky130_fd_pr__pfet_01v8__lku0_diff}
+ wku0 = {0+sky130_fd_pr__pfet_01v8__wku0_diff}
+ pku0 = 0.0
+ llodku0 = 0.0
+ wlodku0 = 1.0
+ kvsat = {0+sky130_fd_pr__pfet_01v8__kvsat_diff}
+ steta0 = 0.0
+ tku0 = 0.0
.model sky130_fd_pr__pfet_01v8__model.3 pmos
* DC IV MOS Parameters
+ lmin = 2e-06 lmax = 4e-06 wmin = 7e-06 wmax = 1.0e-4
+ level = 54.0
+ tnom = 30.0
+ version = 4.5
+ toxm = 4.23e-9
+ xj = 1.5e-7
+ lln = 1.0
+ lwn = 1.0
+ wln = 1.0
+ wwn = 1.0
+ lint = -2.61215e-8
+ ll = 0.0
+ lw = 0.0
+ lwl = 0.0
+ wint = 2.98239e-8
+ wl = 0.0
+ ww = 0.0
+ wwl = 0.0
+ xl = 0.0
+ xw = 0.0
+ mobmod = 0.0
+ binunit = 2.0
+ dwg = -5.722e-9
+ dwb = -1.7864e-8
* BSIM4 - Model Selectors
+ igcmod = 0.0
+ igbmod = 0.0
+ rgatemod = 0.0
+ rbodymod = 1.0
+ trnqsmod = 0.0
+ acnqsmod = 0.0
+ fnoimod = 1.0
+ tnoimod = 1.0
+ permod = 1.0
+ geomod = 0.0
+ rdsmod = 0.0
+ tempmod = 0.0
+ lintnoi = -2.0e-7
+ vfbsdoff = 0.0
+ lambda = 0.0
+ vtl = 0.0
+ lc = 5.0e-9
+ xn = 3.0
+ rnoia = 0.69
+ rnoib = 0.34
+ tnoia = 25.0e+6
+ tnoib = .0e-6
* BSIM4 - Process Parameters
+ epsrox = 3.9
+ toxe = {4.384395e-09+sky130_fd_pr__pfet_01v8__toxe_slope_spectre*(4.384395e-09*(sky130_fd_pr__pfet_01v8__toxe_slope/sqrt(l*w*mult)))}
+ dtox = 0.0
+ ndep = 1.7000000000000000e+17
+ nsd = 1.0e+20
+ rshg = 0.1
+ rsh = 1.0
* Threshold Voltage Parameters
+ vth0 = {-1.07437596491725+sky130_fd_pr__pfet_01v8__vth0_slope_spectre*(sky130_fd_pr__pfet_01v8__vth0_slope/sqrt(l*w*mult))} lvth0 = 3.03187399621725e-8
+ k1 = 0.424193366780375 lk1 = 2.70265693024933e-8
+ k2 = 0.021758652454319 lk2 = -9.49819198497299e-9
+ k3 = -15.845
+ dvt0 = 4.4955
+ dvt1 = 0.294
+ dvt2 = 0.015
+ dvt0w = -4.9772
+ dvt1w = 1147200.0
+ dvt2w = -0.00896
+ w0 = 0.0
+ k3b = 2.0
* NEW BSIM4 Parameters for Level 54
+ phin = 0.0
+ lpe0 = 0.0
+ lpeb = 0.0
+ vbm = -3.0
+ dvtp0 = 0.0
+ dvtp1 = 0.0
* Mobility Parameters
+ vsat = 53437.5
+ ua = -2.24827727670615e-10 lua = -1.32388874763554e-15
+ ub = 7.81807564174605e-19 lub = 8.47978877374716e-25
+ uc = -8.1142522719913e-11 luc = 8.59951234884924e-17
+ rdsw = 547.88
+ prwb = -0.32348
+ prwg = 0.1376
+ wr = 1.0
+ u0 = 0.0121388372214 lu0 = -5.7365060209576e-9
+ a0 = 1.228324476138 la0 = -5.62673234818787e-8
+ keta = -0.005397538898584 lketa = -2.30484129822503e-8
+ a1 = 0.0
+ a2 = 0.8
+ ags = 0.0529089695462651 lags = 7.73402469541054e-7
+ b0 = 0.0
+ b1 = 0.0
* BSIM4 - Mobility Parameters
+ eu = 1.67
+ rdswmin = 0.0
+ rdw = 0.0
+ rdwmin = 0.0
+ rsw = 0.0
+ rswmin = 0.0
* Subthreshold Current Parameters
+ voff = {-0.235249824251935+sky130_fd_pr__pfet_01v8__voff_slope_spectre*(sky130_fd_pr__pfet_01v8__voff_slope/sqrt(l*w*mult))} lvoff = 2.8333624465314e-8
+ nfactor = {1.4833449733681+sky130_fd_pr__pfet_01v8__nfactor_slope_spectre*(sky130_fd_pr__pfet_01v8__nfactor_slope/sqrt(l*w*mult))} lnfactor = 2.17326923522308e-8
+ up = 0.0
+ ud = 0.0
+ lp = 1.0
+ tvfbsdoff = 0.0
+ tvoff = 0.0
+ cit = 1.0e-5
+ cdsc = 0.00013
+ cdscb = 0.00078
+ cdscd = 0.0
+ eta0 = 0.16157665925 leta0 = -3.30568446409198e-7
+ etab = -0.141315443808768 letab = 2.88987507965972e-7
+ dsub = 0.86783645 ldsub = -1.24742809965735e-6
* BSIM4 - Sub-threshold parameters
+ voffl = 0.0
+ minv = 0.0
* Rout Parameters
+ pclm = 0.464982589871315 lpclm = -1.27077205330497e-7
+ pdiblc1 = 0.39
+ pdiblc2 = -2.37240050092149e-05 lpdiblc2 = 7.32123909457167e-10
+ pdiblcb = -0.025
+ drout = 0.56
+ pscbe1 = 800451626.855795 lpscbe1 = -1.83010176500738
+ pscbe2 = 8.28249481999155e-09 lpscbe2 = 1.35058333473979e-15
+ pvag = 0.0
+ delta = 0.01
+ alpha0 = 1.0e-10
+ alpha1 = 1.0e-10
+ beta0 = 3.8693587765981 lbeta0 = 8.79023745233698e-6
* BSIM4 - Rout Parameters
+ fprout = 0.0
+ pdits = 0.0
+ pditsl = 0.0
+ pditsd = 0.0
* BSIM4 - Gate Induced Drain Leakage Model Parameters
+ agidl = 1.31655291606185e-10 lagidl = -6.49643506117519e-17
+ bgidl = 916262739.3196 lbgidl = 339.323728431326
+ cgidl = 300.0
+ egidl = 0.1
* BSIM4 - Gate Leakage Current Parameters
+ aigbacc = 0.43
+ bigbacc = 0.054
+ cigbacc = 0.075
+ nigbacc = 1.0
+ aigbinv = 0.35
+ bigbinv = 0.03
+ cigbinv = 0.006
+ eigbinv = 1.1
+ nigbinv = 3.0
+ aigc = 0.43
+ bigc = 0.054
+ cigc = 0.075
+ nigc = 1.0
+ aigsd = 0.43
+ bigsd = 0.054
+ cigsd = 0.075
+ dlcig = 0.0
+ poxedge = 1.0
+ pigcd = 1.0
+ ntox = 1.0
+ toxref = 4.23e-9
* Temperature Effects Parameters
+ kt1 = -0.466380103196935 lkt1 = 4.34142401523773e-9
+ kt2 = -0.00524693839780851 lkt2 = -7.93321900407623e-8
+ at = 107195.154781301 lat = -0.0537991372953335
+ ute = -0.175352702489855 lute = -1.22543303159482e-7
+ ua1 = 2.34944805762225e-09 lua1 = -1.43937194039846e-15
+ ub1 = -1.03403519912063e-18 lub1 = 8.64945105377219e-25
+ uc1 = -2.43879612721223e-10 luc1 = 4.66670457235129e-16
+ kt1l = 0.0
+ prt = 0.0
* BSIM4 - High Speed RF Model Parameters
+ xrcrg1 = 12.0
+ xrcrg2 = 1.0
+ rbpb = 50.0
+ rbpd = 50.0
+ rbps = 50.0
+ rbdb = 50.0
+ rbsb = 50.0
+ gbmin = 1.0e-12
* BSIM4 - Flicker and Thermal Noise Parameters
+ noia = 1.5e+42
+ noib = 0.0
+ noic = 0.0
+ em = 41000000.0
+ af = 1.0
+ ef = 1.0
+ kf = 0.0
+ ntnoi = 1.0
* BSIM4 - Layout Dependent Parasitic Model Parameters
+ dmcg = 0.0
+ dmcgt = 0.0
+ dmdg = 0.0
+ xgw = 0.0
+ xgl = 0.0
+ ngcon = 1.0
* Diode DC IV Parameters
* BSIM4 - Diode DC IV parameters
+ diomod = 1.0
+ njs = 1.3632
+ jss = 2.1483e-5
+ jsws = 8.04e-10
+ xtis = 5.2
+ bvs = 12.69
+ xjbvs = 1.0
+ ijthsrev = 0.1
+ ijthsfwd = 0.1
* Diode and FET Capacitance Parameters
+ tpb = 0.0020386
+ tpbsw = 0.001246
+ tpbswg = 0.0
+ tcj = 0.0012407
+ tcjsw = 0.00037357
+ tcjswg = 2.0e-12
+ cgdo = 6.07365e-11
+ cgso = 6.07365e-11
+ cgbo = 0.0
+ capmod = 2.0
+ xpart = 0.0
+ cgsl = 1.10485215e-11
+ cgdl = 1.10485215e-11
+ cf = 1.2e-11
+ clc = 1.0e-7
+ cle = 0.6
+ dlc = -1.51275e-8
+ dwc = 2.252e-8
+ vfbcv = -0.14469
+ acde = 0.8
+ moin = 18.13
+ noff = 3.9
+ voffcv = -0.10701
+ ngate = 1.0e+23
+ lwc = 0.0
+ llc = 0.0
+ lwlc = 0.0
+ wlc = 0.0
+ wwc = 0.0
+ wwlc = 0.0
* BSIM4 - FET and Diode capacitance parameters
+ ckappas = 0.6
+ cjs = 0.000787089375
+ mjs = 0.34629
+ pbs = 0.6587
+ cjsws = 1.05469e-10
+ mjsws = 0.29781
+ pbsws = 0.7418
+ cjswgs = 2.5506845e-10
+ mjswgs = 0.9274
+ pbswgs = 1.4338
* Stress Parameters
+ saref = 3.0e-6
+ sbref = 3.0e-6
+ wlod = {0+sky130_fd_pr__pfet_01v8__wlod_diff}
+ kvth0 = {0+sky130_fd_pr__pfet_01v8__kvth0_diff}
+ lkvth0 = {0+sky130_fd_pr__pfet_01v8__lkvth0_diff}
+ wkvth0 = {0+sky130_fd_pr__pfet_01v8__wkvth0_diff}
+ pkvth0 = 0.0
+ llodvth = 0.0
+ wlodvth = 1.0
+ stk2 = 0.0
+ lodk2 = 1.0
+ lodeta0 = 1.0
+ ku0 = {0+sky130_fd_pr__pfet_01v8__ku0_diff}
+ lku0 = {0+sky130_fd_pr__pfet_01v8__lku0_diff}
+ wku0 = {0+sky130_fd_pr__pfet_01v8__wku0_diff}
+ pku0 = 0.0
+ llodku0 = 0.0
+ wlodku0 = 1.0
+ kvsat = {0+sky130_fd_pr__pfet_01v8__kvsat_diff}
+ steta0 = 0.0
+ tku0 = 0.0
.model sky130_fd_pr__pfet_01v8__model.4 pmos
* DC IV MOS Parameters
+ lmin = 1e-06 lmax = 2e-06 wmin = 7e-06 wmax = 1.0e-4
+ level = 54.0
+ tnom = 30.0
+ version = 4.5
+ toxm = 4.23e-9
+ xj = 1.5e-7
+ lln = 1.0
+ lwn = 1.0
+ wln = 1.0
+ wwn = 1.0
+ lint = -2.61215e-8
+ ll = 0.0
+ lw = 0.0
+ lwl = 0.0
+ wint = 2.98239e-8
+ wl = 0.0
+ ww = 0.0
+ wwl = 0.0
+ xl = 0.0
+ xw = 0.0
+ mobmod = 0.0
+ binunit = 2.0
+ dwg = -5.722e-9
+ dwb = -1.7864e-8
* BSIM4 - Model Selectors
+ igcmod = 0.0
+ igbmod = 0.0
+ rgatemod = 0.0
+ rbodymod = 1.0
+ trnqsmod = 0.0
+ acnqsmod = 0.0
+ fnoimod = 1.0
+ tnoimod = 1.0
+ permod = 1.0
+ geomod = 0.0
+ rdsmod = 0.0
+ tempmod = 0.0
+ lintnoi = -2.0e-7
+ vfbsdoff = 0.0
+ lambda = 0.0
+ vtl = 0.0
+ lc = 5.0e-9
+ xn = 3.0
+ rnoia = 0.69
+ rnoib = 0.34
+ tnoia = 25.0e+6
+ tnoib = .0e-6
* BSIM4 - Process Parameters
+ epsrox = 3.9
+ toxe = {4.384395e-09+sky130_fd_pr__pfet_01v8__toxe_slope_spectre*(4.384395e-09*(sky130_fd_pr__pfet_01v8__toxe_slope/sqrt(l*w*mult)))}
+ dtox = 0.0
+ ndep = 1.7000000000000000e+17
+ nsd = 1.0e+20
+ rshg = 0.1
+ rsh = 1.0
* Threshold Voltage Parameters
+ vth0 = {-1.0794830531205+sky130_fd_pr__pfet_01v8__vth0_slope_spectre*(sky130_fd_pr__pfet_01v8__vth0_slope/sqrt(l*w*mult))} lvth0 = 4.07997259776741e-8
+ k1 = 0.35258842964425 lk1 = 1.73977300305546e-7
+ k2 = 0.050249560513596 lk2 = -6.79684586132678e-08 pk2 = 5.04870979341448e-29
+ k3 = -15.845
+ dvt0 = 4.4955
+ dvt1 = 0.294
+ dvt2 = 0.015
+ dvt0w = -4.9772
+ dvt1w = 1147200.0
+ dvt2w = -0.00896
+ w0 = 0.0
+ k3b = 2.0
* NEW BSIM4 Parameters for Level 54
+ phin = 0.0
+ lpe0 = 0.0
+ lpeb = 0.0
+ vbm = -3.0
+ dvtp0 = 0.0
+ dvtp1 = 0.0
* Mobility Parameters
+ vsat = 34694.4215625 lvsat = 0.0384653515218103
+ ua = -7.4590754973592e-10 lua = -2.54506330360777e-16
+ ub = 1.17217966544588e-18 lub = 4.68404651454509e-26
+ uc = -4.3075487117715e-11 luc = 7.87231614313079e-18
+ rdsw = 547.88
+ prwb = -0.32348
+ prwg = 0.1376
+ wr = 1.0
+ u0 = 0.0101597196708 lu0 = -1.67487588156161e-9
+ a0 = 1.351594511058 la0 = -3.09247389756203e-7
+ keta = -0.006446117064797 lketa = -2.08964757806868e-8
+ a1 = 0.0
+ a2 = 0.6947757 la2 = 2.159458331049e-7
+ ags = 0.30333918616215 lags = 2.59458810502621e-7
+ b0 = 0.0
+ b1 = 0.0
* BSIM4 - Mobility Parameters
+ eu = 1.67
+ rdswmin = 0.0
+ rdw = 0.0
+ rdwmin = 0.0
+ rsw = 0.0
+ rswmin = 0.0
* Subthreshold Current Parameters
+ voff = {-0.2342745959177+sky130_fd_pr__pfet_01v8__voff_slope_spectre*(sky130_fd_pr__pfet_01v8__voff_slope/sqrt(l*w*mult))} lvoff = 2.63322189429783e-8
+ nfactor = {1.2668641330019+sky130_fd_pr__pfet_01v8__nfactor_slope_spectre*(sky130_fd_pr__pfet_01v8__nfactor_slope/sqrt(l*w*mult))} lnfactor = 4.66003981627882e-7
+ up = 0.0
+ ud = 0.0
+ lp = 1.0
+ tvfbsdoff = 0.0
+ tvoff = 0.0
+ cit = 1.0e-5
+ cdsc = 0.00013
+ cdscb = 0.00078
+ cdscd = 0.0
+ eta0 = -0.5145729485 leta0 = 1.05705485304849e-06 weta0 = 2.13412598038681e-22 peta0 = 1.57772181044202e-28
+ etab = 7.82572104062834 letab = -1.60613073479647e-05 wetab = 1.22091858412827e-21 petab = 1.18944447289224e-26
+ dsub = 0.26
* BSIM4 - Sub-threshold parameters
+ voffl = 0.0
+ minv = 0.0
* Rout Parameters
+ pclm = 0.17740276109201 lpclm = 4.6310648522303e-7
+ pdiblc1 = 0.40904087372893 lpdiblc1 = -3.90764998240805e-8
+ pdiblc2 = 0.00023097199624504 lpdiblc2 = 2.0942582375513e-10
+ pdiblcb = -0.0505225220816911 lpdiblcb = 5.23784172844961e-8
+ drout = 0.39628460522442 ldrout = 3.35983772920421e-7
+ pscbe1 = 799096746.28841 lpscbe1 = 0.950442395244636
+ pscbe2 = 8.9459351914306e-09 lpscbe2 = -1.09575234634111e-17
+ pvag = 0.0
+ delta = 0.01
+ alpha0 = -4.6979642602591e-05 lalpha0 = 9.64138478979692e-11 walpha0 = -1.74882574078446e-26 palpha0 = -3.49601423889355e-33
+ alpha1 = 2.052243e-10 lalpha1 = -2.159458331049e-16
+ beta0 = -14.725699412172 lbeta0 = 4.69518154548331e-05 pbeta0 = 2.58493941422821e-26
* BSIM4 - Rout Parameters
+ fprout = 0.0
+ pdits = 0.0
+ pditsl = 0.0
+ pditsd = 0.0
* BSIM4 - Gate Induced Drain Leakage Model Parameters
+ agidl = 1.0e-10
+ bgidl = 791118977.9994 lbgidl = 596.149136594378
+ cgidl = 300.0
+ egidl = 0.1
* BSIM4 - Gate Leakage Current Parameters
+ aigbacc = 0.43
+ bigbacc = 0.054
+ cigbacc = 0.075
+ nigbacc = 1.0
+ aigbinv = 0.35
+ bigbinv = 0.03
+ cigbinv = 0.006
+ eigbinv = 1.1
+ nigbinv = 3.0
+ aigc = 0.43
+ bigc = 0.054
+ cigc = 0.075
+ nigc = 1.0
+ aigsd = 0.43
+ bigsd = 0.054
+ cigsd = 0.075
+ dlcig = 0.0
+ poxedge = 1.0
+ pigcd = 1.0