* Copyright 2020 The SkyWater PDK Authors
*
* Licensed under the Apache License, Version 2.0 (the "License");
* you may not use this file except in compliance with the License.
* You may obtain a copy of the License at
*
*     https://www.apache.org/licenses/LICENSE-2.0
*
* Unless required by applicable law or agreed to in writing, software
* distributed under the License is distributed on an "AS IS" BASIS,
* WITHOUT WARRANTIES OR CONDITIONS OF ANY KIND, either express or implied.
* See the License for the specific language governing permissions and
* limitations under the License.

* SKY130 Spice File.
.param sky130_fd_pr__nfet_01v8__toxe_slope_spectre = 0.0
.param sky130_fd_pr__nfet_01v8__vth0_slope_spectre = 0.0
.param sky130_fd_pr__nfet_01v8__voff_slope_spectre = 0.0
* statistics {
*   process {
*   }
*   mismatch {
*     vary sky130_fd_pr__nfet_01v8__toxe_slope_spectre dist=gauss std = 1.0
*     vary sky130_fd_pr__nfet_01v8__vth0_slope_spectre dist=gauss std = 1.0
*     vary sky130_fd_pr__nfet_01v8__voff_slope_spectre dist=gauss std = 1.0
*   }
* }
.subckt  sky130_fd_pr__nfet_01v8 d g s b
+ 
.param  l = 1 w = 1 ad = 0 as = 0 pd = 0 ps = 0 nrd = 0 nrs = 0 sa = 0 sb = 0 sd = 0 mult = 1 nf = 1.0
msky130_fd_pr__nfet_01v8 d g s b sky130_fd_pr__nfet_01v8__model l = {l} w = {w} ad = {ad} as = {as} pd = {pd} ps = {ps} nrd = {nrd} nrs = {nrs} sa = {sa} sb = {sb} sd = {sd} nf = {nf}
.model sky130_fd_pr__nfet_01v8__model.0 nmos
* Model Flag Parameters
+ lmin = 2.0e-05 lmax = 0.0001 wmin = 7.0e-06 wmax = 0.0001
+ level = 54.0
+ version = 4.5
+ binunit = 2.0
+ mobmod = 0.0
+ capmod = 2.0
+ igcmod = 0.0
+ igbmod = 0.0
+ geomod = 0.0
+ diomod = 1.0
+ rdsmod = 0.0
+ rbodymod = 1.0
+ rgatemod = 0.0
+ permod = 1.0
+ acnqsmod = 0.0
+ trnqsmod = 0.0
+ fnoimod = 1.0
+ tnoimod = 1.0
+ tempmod = 0.0
* Process Parameters
+ toxe = {4.148e-09+sky130_fd_pr__nfet_01v8__toxe_slope_spectre*(4.148e-09*1.0*(sky130_fd_pr__nfet_01v8__toxe_slope/sqrt(l*w*mult)))}
+ toxm = 4.148e-9
+ dtox = 0.0
+ epsrox = 3.9
+ xj = 1.5e-7
+ ngate = 1.0e+23
+ ndep = 1.7e+17
+ nsd = 1.0e+20
+ rsh = 1.0
+ rshg = 0.1
* Basic Model Parameters
+ wint = 2.1859e-8
+ lint = 1.1932e-8
+ vth0 = {0.536077+sky130_fd_pr__nfet_01v8__vth0_slope_spectre*(sky130_fd_pr__nfet_01v8__vth0_slope/sqrt(l*w*mult))}
+ k1 = 0.54086565
+ k2 = -0.030899431
+ k3 = 2.0
+ k3b = 0.54
+ w0 = 0.0
+ dvt0 = 0.0
+ dvt1 = 0.53
+ dvt2 = -0.032
+ dvt0w = -3.58
+ dvt1w = 1670600.0
+ dvt2w = 0.068
+ dsub = 0.56
+ minv = 0.0
+ voffl = 5.8197729e-9
+ lpe0 = 1.0325e-7
+ lpeb = -7.082e-8
+ vbm = -3.0
+ dvtp0 = 0.0
+ dvtp1 = 0.0
+ phin = 0.0
+ cdsc = 0.0
+ cdscb = 0.0
+ cdscd = 0.0054
+ cit = 0.0
+ voff = {-0.1814466+sky130_fd_pr__nfet_01v8__voff_slope_spectre*(sky130_fd_pr__nfet_01v8__voff_slope/sqrt(l*w*mult))}
+ nfactor = 2.30474
+ eta0 = 0.08
+ etab = -0.07
+ u0 = 0.03243309
+ ua = -7.5866357e-10
+ ub = 1.674192e-18
+ uc = 4.9242e-11
+ ud = 0.0
+ up = 0.0
+ lp = 1.0
+ eu = 1.67
+ vtl = 0.0
+ xn = 3.0
+ vsat = 80000.0
+ a0 = 1.297743
+ ags = 0.430444
+ a1 = 0.0
+ a2 = 0.42385546
+ b0 = 0.0
+ b1 = 2.1073424e-24
+ keta = -0.0087946
+ dwg = 0.0
+ dwb = 0.0
+ pclm = 0.026316
+ pdiblc1 = 0.39
+ pdiblc2 = 0.0030734587
+ pdiblcb = -0.025
+ drout = 0.56
+ pscbe1 = 754674160.0
+ pscbe2 = 1.0e-12
+ pvag = 0.0
+ delta = 0.01
+ fprout = 0.0
+ pdits = 0.0
+ pditsl = 0.0
+ pditsd = 0.0
+ lambda = 0.0
+ lc = 5.0e-9
* Parameters FOR Asymmetric AND Bias-Dependent RDS Model
+ rdsw = 65.968
+ rsw = 0.0
+ rdw = 0.0
+ rdswmin = 0.0
+ rdwmin = 0.0
+ rswmin = 0.0
+ prwb = 0.0
+ prwg = 0.021507
+ wr = 1.0
* Impact Ionization Current Model Parameters
+ alpha0 = 3.0e-8
+ alpha1 = 0.85
+ beta0 = 13.86
* Gidl Induced Drain Leakage Model Parameters
+ agidl = 0.0
+ bgidl = 2300000000.0
+ cgidl = 0.5
+ egidl = 0.8
* Gate Dielectric Tunneling Current Model Parameters
+ toxref = 4.148e-9
+ dlcig = 0.0
+ aigbacc = 1.0
+ bigbacc = 0.0
+ cigbacc = 0.0
+ nigbacc = 0.0
+ aigbinv = 0.35
+ bigbinv = 0.03
+ cigbinv = 0.006
+ eigbinv = 1.1
+ nigbinv = 0.0
+ aigc = 0.43
+ bigc = 0.054
+ cigc = 0.075
+ aigsd = 0.43
+ bigsd = 0.054
+ cigsd = 0.075
+ nigc = 0.0
+ poxedge = 1.0
+ pigcd = 1.0
+ ntox = 1.0
+ vfbsdoff = 0.0
* Charge AND Capacitance Model Parameters
+ dlc = 9.87909e-9
+ dwc = 0.0
+ xpart = 0.0
+ cgso = 2.449068e-10
+ cgdo = 2.449068e-10
+ cgbo = 1.0e-13
+ cgdl = 0.0
+ cgsl = 0.0
+ clc = 1.0e-7
+ cle = 0.6
+ cf = 1.4067e-12
+ ckappas = 0.6
+ vfbcv = -1.0
+ acde = 0.4
+ moin = 6.9
+ noff = 3.4037
+ voffcv = -0.17287
* High-Speed/RF Model Parameters
+ xrcrg1 = 12.0
+ xrcrg2 = 1.0
+ rbpb = 50.0
+ rbpd = 50.0
+ rbps = 50.0
+ rbdb = 50.0
+ rbsb = 50.0
+ gbmin = 1.0e-12
* Flicker AND Thermal Noise Model Parameters
+ ef = 0.84
+ noia = 2.5e+42
+ noib = 0.0
+ noic = 0.0
+ em = 41000000.0
+ ntnoi = 1.0
+ lintnoi = -1.0e-7
+ af = 1.0
+ kf = 0.0
+ tnoia = 15000000.0
+ tnoib = 9900000.0
+ rnoia = 0.94
+ rnoib = 0.26
* Layout-Dependent Parasitics Model Parameters
+ xl = 0.0
+ xw = 0.0
+ dmcg = 0.0
+ dmdg = 0.0
+ dmcgt = 0.0
+ xgw = 0.0
+ xgl = 0.0
+ ngcon = 1.0
* Asymmetric Source/Drain Junction Diode Model Parameters
+ jss = 0.00275
+ jsws = 6.0e-10
+ ijthsfwd = 0.1
+ ijthsrev = 0.1
+ bvs = 11.7
+ xjbvs = 1.0
+ pbs = 0.729
+ cjs = 0.001339749237
+ mjs = 0.44
+ pbsws = 0.2
+ cjsws = 3.67354204e-11
+ mjsws = 0.0009
+ pbswgs = 0.95578
+ cjswgs = 2.38232788e-10
+ mjswgs = 0.8
* Temperature Dependence Parameters
+ tnom = 30.0
+ kt1 = -0.31303
+ kt2 = -0.045313337
+ at = 140000.0
+ ute = -1.8134
+ ua1 = 3.7602e-10
+ ub1 = -6.3962e-19
+ uc1 = 1.5829713e-11
+ kt1l = 0.0
+ prt = 0.0
+ tvoff = -0.0020233
+ njs = 1.2928
+ tpb = 0.0012287
+ tcj = 0.000792
+ tpbsw = 0.0
+ tcjsw = 1.0e-5
+ tpbswg = 0.0
+ tcjswg = 0.0
+ xtis = 2.0
+ tvfbsdoff = 0.0
* DW AND DL Parameters
+ ll = 0.0
+ wl = 0.0
+ lln = 1.0
+ wln = 1.0
+ lw = 0.0
+ ww = 0.0
+ lwn = 1.0
+ wwn = 1.0
+ lwl = 0.0
+ wwl = 0.0
+ llc = 0.0
+ wlc = 0.0
+ lwc = 0.0
+ wwc = 0.0
+ lwlc = 0.0
+ wwlc = 0.0
* Stress Parameters
+ saref = 3.0e-6
+ sbref = 3.0e-6
+ kvth0 = 9.8e-9
+ lkvth0 = 0.0
+ wkvth0 = 2.0e-7
+ pkvth0 = 0.0
+ llodvth = 0.0
+ wlodvth = 1.0
+ wlod = 0.0
+ stk2 = 0.0
+ lodk2 = 1.0
+ lodeta0 = 1.0
+ ku0 = -2.7e-8
+ lku0 = 0.0
+ wku0 = 0.0
+ pku0 = 0.0
+ tku0 = 0.0
+ llodku0 = 0.0
+ wlodku0 = 1.0
+ kvsat = 0.2
+ steta0 = 0.0
* Well Proximity Effect Parameters
.model sky130_fd_pr__nfet_01v8__model.1 nmos
* Model Flag Parameters
+ lmin = 8.0e-06 lmax = 2.0e-05 wmin = 7.0e-06 wmax = 0.0001
+ level = 54.0
+ version = 4.5
+ binunit = 2.0
+ mobmod = 0.0
+ capmod = 2.0
+ igcmod = 0.0
+ igbmod = 0.0
+ geomod = 0.0
+ diomod = 1.0
+ rdsmod = 0.0
+ rbodymod = 1.0
+ rgatemod = 0.0
+ permod = 1.0
+ acnqsmod = 0.0
+ trnqsmod = 0.0
+ fnoimod = 1.0
+ tnoimod = 1.0
+ tempmod = 0.0
* Process Parameters
+ toxe = {4.148e-09+sky130_fd_pr__nfet_01v8__toxe_slope_spectre*(4.148e-09*1.0*(sky130_fd_pr__nfet_01v8__toxe_slope/sqrt(l*w*mult)))}
+ toxm = 4.148e-9
+ dtox = 0.0
+ epsrox = 3.9
+ xj = 1.5e-7
+ ngate = 1.0e+23
+ ndep = 1.7e+17
+ nsd = 1.0e+20
+ rsh = 1.0
+ rshg = 0.1
* Basic Model Parameters
+ wint = 2.1859e-8
+ lint = 1.1932e-8
+ vth0 = {0.536077+sky130_fd_pr__nfet_01v8__vth0_slope_spectre*(sky130_fd_pr__nfet_01v8__vth0_slope/sqrt(l*w*mult))}
+ k1 = 0.54086565
+ k2 = -0.030899431
+ k3 = 2.0
+ k3b = 0.54
+ w0 = 0.0
+ dvt0 = 0.0
+ dvt1 = 0.53
+ dvt2 = -0.032
+ dvt0w = -3.58
+ dvt1w = 1670600.0
+ dvt2w = 0.068
+ dsub = 0.56
+ minv = 0.0
+ voffl = 5.8197729e-9
+ lpe0 = 1.0325e-7
+ lpeb = -7.082e-8
+ vbm = -3.0
+ dvtp0 = 0.0
+ dvtp1 = 0.0
+ phin = 0.0
+ cdsc = 0.0
+ cdscb = 0.0
+ cdscd = 0.0054
+ cit = 0.0
+ voff = {-0.1814466+sky130_fd_pr__nfet_01v8__voff_slope_spectre*(sky130_fd_pr__nfet_01v8__voff_slope/sqrt(l*w*mult))}
+ nfactor = 2.30474
+ eta0 = 0.08
+ etab = -0.07
+ u0 = 0.03243309
+ ua = -7.5866357e-10
+ ub = 1.674192e-18
+ uc = 4.9242e-11
+ ud = 0.0
+ up = 0.0
+ lp = 1.0
+ eu = 1.67
+ vtl = 0.0
+ xn = 3.0
+ vsat = 80000.0
+ a0 = 1.297743
+ ags = 0.430444
+ a1 = 0.0
+ a2 = 0.42385546
+ b0 = 0.0
+ b1 = 2.1073424e-24
+ keta = -0.0087946
+ dwg = 0.0
+ dwb = 0.0
+ pclm = 0.026316
+ pdiblc1 = 0.39
+ pdiblc2 = 0.0030734587
+ pdiblcb = -0.025
+ drout = 0.56
+ pscbe1 = 754674160.0
+ pscbe2 = 1.0e-12
+ pvag = 0.0
+ delta = 0.01
+ fprout = 0.0
+ pdits = 0.0
+ pditsl = 0.0
+ pditsd = 0.0
+ lambda = 0.0
+ lc = 5.0e-9
* Parameters FOR Asymmetric AND Bias-Dependent RDS Model
+ rdsw = 65.968
+ rsw = 0.0
+ rdw = 0.0
+ rdswmin = 0.0
+ rdwmin = 0.0
+ rswmin = 0.0
+ prwb = 0.0
+ prwg = 0.021507
+ wr = 1.0
* Impact Ionization Current Model Parameters
+ alpha0 = 3.0e-8
+ alpha1 = 0.85
+ beta0 = 13.86
* Gidl Induced Drain Leakage Model Parameters
+ agidl = 0.0
+ bgidl = 2300000000.0
+ cgidl = 0.5
+ egidl = 0.8
* Gate Dielectric Tunneling Current Model Parameters
+ toxref = 4.148e-9
+ dlcig = 0.0
+ aigbacc = 1.0
+ bigbacc = 0.0
+ cigbacc = 0.0
+ nigbacc = 0.0
+ aigbinv = 0.35
+ bigbinv = 0.03
+ cigbinv = 0.006
+ eigbinv = 1.1
+ nigbinv = 0.0
+ aigc = 0.43
+ bigc = 0.054
+ cigc = 0.075
+ aigsd = 0.43
+ bigsd = 0.054
+ cigsd = 0.075
+ nigc = 0.0
+ poxedge = 1.0
+ pigcd = 1.0
+ ntox = 1.0
+ vfbsdoff = 0.0
* Charge AND Capacitance Model Parameters
+ dlc = 9.87909e-9
+ dwc = 0.0
+ xpart = 0.0
+ cgso = 2.449068e-10
+ cgdo = 2.449068e-10
+ cgbo = 1.0e-13
+ cgdl = 0.0
+ cgsl = 0.0
+ clc = 1.0e-7
+ cle = 0.6
+ cf = 1.4067e-12
+ ckappas = 0.6
+ vfbcv = -1.0
+ acde = 0.4
+ moin = 6.9
+ noff = 3.4037
+ voffcv = -0.17287
* High-Speed/RF Model Parameters
+ xrcrg1 = 12.0
+ xrcrg2 = 1.0
+ rbpb = 50.0
+ rbpd = 50.0
+ rbps = 50.0
+ rbdb = 50.0
+ rbsb = 50.0
+ gbmin = 1.0e-12
* Flicker AND Thermal Noise Model Parameters
+ ef = 0.84
+ noia = 2.5e+42
+ noib = 0.0
+ noic = 0.0
+ em = 41000000.0
+ ntnoi = 1.0
+ lintnoi = -1.0e-7
+ af = 1.0
+ kf = 0.0
+ tnoia = 15000000.0
+ tnoib = 9900000.0
+ rnoia = 0.94
+ rnoib = 0.26
* Layout-Dependent Parasitics Model Parameters
+ xl = 0.0
+ xw = 0.0
+ dmcg = 0.0
+ dmdg = 0.0
+ dmcgt = 0.0
+ xgw = 0.0
+ xgl = 0.0
+ ngcon = 1.0
* Asymmetric Source/Drain Junction Diode Model Parameters
+ jss = 0.00275
+ jsws = 6.0e-10
+ ijthsfwd = 0.1
+ ijthsrev = 0.1
+ bvs = 11.7
+ xjbvs = 1.0
+ pbs = 0.729
+ cjs = 0.001339749237
+ mjs = 0.44
+ pbsws = 0.2
+ cjsws = 3.67354204e-11
+ mjsws = 0.0009
+ pbswgs = 0.95578
+ cjswgs = 2.38232788e-10
+ mjswgs = 0.8
* Temperature Dependence Parameters
+ tnom = 30.0
+ kt1 = -0.31303
+ kt2 = -0.045313337
+ at = 140000.0
+ ute = -1.8134
+ ua1 = 3.7602e-10
+ ub1 = -6.3962e-19
+ uc1 = 1.5829713e-11
+ kt1l = 0.0
+ prt = 0.0
+ tvoff = -0.0020233
+ njs = 1.2928
+ tpb = 0.0012287
+ tcj = 0.000792
+ tpbsw = 0.0
+ tcjsw = 1.0e-5
+ tpbswg = 0.0
+ tcjswg = 0.0
+ xtis = 2.0
+ tvfbsdoff = 0.0
* DW AND DL Parameters
+ ll = 0.0
+ wl = 0.0
+ lln = 1.0
+ wln = 1.0
+ lw = 0.0
+ ww = 0.0
+ lwn = 1.0
+ wwn = 1.0
+ lwl = 0.0
+ wwl = 0.0
+ llc = 0.0
+ wlc = 0.0
+ lwc = 0.0
+ wwc = 0.0
+ lwlc = 0.0
+ wwlc = 0.0
* Stress Parameters
+ saref = 3.0e-6
+ sbref = 3.0e-6
+ kvth0 = 9.8e-9
+ lkvth0 = 0.0
+ wkvth0 = 2.0e-7
+ pkvth0 = 0.0
+ llodvth = 0.0
+ wlodvth = 1.0
+ wlod = 0.0
+ stk2 = 0.0
+ lodk2 = 1.0
+ lodeta0 = 1.0
+ ku0 = -2.7e-8
+ lku0 = 0.0
+ wku0 = 0.0
+ pku0 = 0.0
+ tku0 = 0.0
+ llodku0 = 0.0
+ wlodku0 = 1.0
+ kvsat = 0.2
+ steta0 = 0.0
* Well Proximity Effect Parameters
.model sky130_fd_pr__nfet_01v8__model.2 nmos
* Model Flag Parameters
+ lmin = 4.0e-06 lmax = 8.0e-06 wmin = 7.0e-06 wmax = 0.0001
+ level = 54.0
+ version = 4.5
+ binunit = 2.0
+ mobmod = 0.0
+ capmod = 2.0
+ igcmod = 0.0
+ igbmod = 0.0
+ geomod = 0.0
+ diomod = 1.0
+ rdsmod = 0.0
+ rbodymod = 1.0
+ rgatemod = 0.0
+ permod = 1.0
+ acnqsmod = 0.0
+ trnqsmod = 0.0
+ fnoimod = 1.0
+ tnoimod = 1.0
+ tempmod = 0.0
* Process Parameters
+ toxe = {4.148e-09+sky130_fd_pr__nfet_01v8__toxe_slope_spectre*(4.148e-09*1.0*(sky130_fd_pr__nfet_01v8__toxe_slope/sqrt(l*w*mult)))}
+ toxm = 4.148e-9
+ dtox = 0.0
+ epsrox = 3.9
+ xj = 1.5e-7
+ ngate = 1.0e+23
+ ndep = 1.7e+17
+ nsd = 1.0e+20
+ rsh = 1.0
+ rshg = 0.1
* Basic Model Parameters
+ wint = 2.1859e-8
+ lint = 1.1932e-8
+ vth0 = {5.367912299e-01+sky130_fd_pr__nfet_01v8__vth0_slope_spectre*(sky130_fd_pr__nfet_01v8__vth0_slope1/sqrt(l*w*mult))} lvth0 = -5.696795150e-09 wvth0 = -7.139176946e-08 pvth0 = 5.694304625e-13
+ k1 = 5.415457968e-01 lk1 = -5.424943089e-09 wk1 = -6.798494173e-08 pk1 = 5.422571412e-13
+ k2 = -3.140779186e-02 lk2 = 4.054755328e-09 wk2 = 5.081386112e-08 pk2 = -4.052982670e-13
+ k3 = 2.0
+ k3b = 0.54
+ w0 = 0.0
+ dvt0 = 0.0
+ dvt1 = 0.53
+ dvt2 = -0.032
+ dvt0w = -3.58
+ dvt1w = 1670600.0
+ dvt2w = 0.068
+ dsub = 0.56
+ minv = 0.0
+ voffl = 5.8197729e-9
+ lpe0 = 1.0325e-7
+ lpeb = -7.082e-8
+ vbm = -3.0
+ dvtp0 = 0.0
+ dvtp1 = 0.0
+ phin = 0.0
+ cdsc = 0.0
+ cdscb = 0.0
+ cdscd = 0.0054
+ cit = 0.0
+ voff = {-1.807326273e-01+sky130_fd_pr__nfet_01v8__voff_slope_spectre*(sky130_fd_pr__nfet_01v8__voff_slope/sqrt(l*w*mult))} lvoff = -5.694743212e-09 wvoff = -7.136605475e-08 pvoff = 5.692253584e-13
+ nfactor = 2.305958637e+00 lnfactor = -9.720015876e-09 wnfactor = -1.218104415e-07 pnfactor = 9.715766479e-13
+ eta0 = 0.08
+ etab = -0.07
+ u0 = 3.241770275e-02 lu0 = 1.227307679e-10 wu0 = 1.538051914e-09 pu0 = -1.226771124e-14
+ ua = -7.582789781e-10 lua = -3.067557542e-18 wua = -3.844237946e-17 pua = 3.066216468e-22
+ ub = 1.672091096e-18 lub = 1.675709387e-26 wub = 2.099985257e-25 pub = -1.674976801e-30
+ uc = 4.877008480e-11 luc = 3.764059839e-18 wuc = 4.717088911e-17 puc = -3.762414268e-22
+ ud = 0.0
+ up = 0.0
+ lp = 1.0
+ eu = 1.67
+ vtl = 0.0
+ xn = 3.0
+ vsat = 80000.0
+ a0 = 1.289305555e+00 la0 = 6.729821120e-08 wa0 = 8.433756617e-07 pa0 = -6.726878977e-12
+ ags = 4.320303102e-01 lags = -1.265262591e-08 wags = -1.585616699e-07 pags = 1.264709444e-12
+ a1 = 0.0
+ a2 = 0.42385546
+ b0 = 0.0
+ b1 = 1.950656262e-24 lb1 = 1.249749944e-30 wb1 = 1.566176377e-29 pb1 = -1.249203578e-34
+ keta = -8.288058846e-03 lketa = -4.040241132e-09 wketa = -5.063197041e-08 pketa = 4.038474820e-13
+ dwg = 0.0
+ dwb = 0.0
+ pclm = 6.800573404e-02 lpclm = -3.325229885e-07 wpclm = -4.167150812e-06 ppclm = 3.323776161e-11
+ pdiblc1 = 0.39
+ pdiblc2 = 3.074732157e-03 lpdiblc2 = -1.015726833e-11 wpdiblc2 = -1.272900534e-10 ppdiblc2 = 1.015282777e-15
+ pdiblcb = -0.025
+ drout = 0.56
+ pscbe1 = 7.580442487e+08 lpscbe1 = -2.688028581e+01 wpscbe1 = -3.368615365e+02 ppscbe1 = 2.686853428e-3
+ pscbe2 = 1.0e-12
+ pvag = 0.0
+ delta = 0.01
+ fprout = 0.0
+ pdits = 0.0
+ pditsl = 0.0
+ pditsd = 0.0
+ lambda = 0.0
+ lc = 5.0e-9
* Parameters FOR Asymmetric AND Bias-Dependent RDS Model
+ rdsw = 65.968
+ rsw = 0.0
+ rdw = 0.0
+ rdswmin = 0.0
+ rdwmin = 0.0
+ rswmin = 0.0
+ prwb = 0.0
+ prwg = 0.021507
+ wr = 1.0
* Impact Ionization Current Model Parameters
+ alpha0 = 3.0e-8
+ alpha1 = 0.85
+ beta0 = 13.86
* Gidl Induced Drain Leakage Model Parameters
+ agidl = 0.0
+ bgidl = 2300000000.0
+ cgidl = 0.5
+ egidl = 0.8
* Gate Dielectric Tunneling Current Model Parameters
+ toxref = 4.148e-9
+ dlcig = 0.0
+ aigbacc = 1.0
+ bigbacc = 0.0
+ cigbacc = 0.0
+ nigbacc = 0.0
+ aigbinv = 0.35
+ bigbinv = 0.03
+ cigbinv = 0.006
+ eigbinv = 1.1
+ nigbinv = 0.0
+ aigc = 0.43
+ bigc = 0.054
+ cigc = 0.075
+ aigsd = 0.43
+ bigsd = 0.054
+ cigsd = 0.075
+ nigc = 0.0
+ poxedge = 1.0
+ pigcd = 1.0
+ ntox = 1.0
+ vfbsdoff = 0.0
* Charge AND Capacitance Model Parameters
+ dlc = 9.87909e-9
+ dwc = 0.0
+ xpart = 0.0
+ cgso = 2.449068e-10
+ cgdo = 2.449068e-10
+ cgbo = 1.0e-13
+ cgdl = 0.0
+ cgsl = 0.0
+ clc = 1.0e-7
+ cle = 0.6
+ cf = 1.4067e-12
+ ckappas = 0.6
+ vfbcv = -1.0
+ acde = 0.4
+ moin = 6.9
+ noff = 3.4037
+ voffcv = -0.17287
* High-Speed/RF Model Parameters
+ xrcrg1 = 12.0
+ xrcrg2 = 1.0
+ rbpb = 50.0
+ rbpd = 50.0
+ rbps = 50.0
+ rbdb = 50.0
+ rbsb = 50.0
+ gbmin = 1.0e-12
* Flicker AND Thermal Noise Model Parameters
+ ef = 0.84
+ noia = 2.5e+42
+ noib = 0.0
+ noic = 0.0
+ em = 41000000.0
+ ntnoi = 1.0
+ lintnoi = -1.0e-7
+ af = 1.0
+ kf = 0.0
+ tnoia = 15000000.0
+ tnoib = 9900000.0
+ rnoia = 0.94
+ rnoib = 0.26
* Layout-Dependent Parasitics Model Parameters
+ xl = 0.0
+ xw = 0.0
+ dmcg = 0.0
+ dmdg = 0.0
+ dmcgt = 0.0
+ xgw = 0.0
+ xgl = 0.0
+ ngcon = 1.0
* Asymmetric Source/Drain Junction Diode Model Parameters
+ jss = 0.00275
+ jsws = 6.0e-10
+ ijthsfwd = 0.1
+ ijthsrev = 0.1
+ bvs = 11.7
+ xjbvs = 1.0
+ pbs = 0.729
+ cjs = 0.001339749237
+ mjs = 0.44
+ pbsws = 0.2
+ cjsws = 3.67354204e-11
+ mjsws = 0.0009
+ pbswgs = 0.95578
+ cjswgs = 2.38232788e-10
+ mjswgs = 0.8
* Temperature Dependence Parameters
+ tnom = 30.0
+ kt1 = -3.131868837e-01 lkt1 = 1.251326022e-09 wkt1 = 1.568151505e-08 pkt1 = -1.250778967e-13
+ kt2 = -4.539671736e-02 lkt2 = 6.650530936e-10 wkt2 = 8.334390809e-09 pkt2 = -6.647623457e-14
+ at = 140000.0
+ ute = -1.816359229e+00 lute = 2.360321122e-08 wute = 2.957935066e-07 pute = -2.359289237e-12
+ ua1 = 3.613755352e-10 lua1 = 1.168062433e-16 wua1 = 1.463806258e-15 pua1 = -1.167551779e-20
+ ub1 = -6.204482125e-19 lub1 = -1.529167842e-25 wub1 = -1.916340595e-24 pub1 = 1.528499321e-29
+ uc1 = 1.690988400e-11 luc1 = -8.615590785e-18 wuc1 = -1.079698769e-16 puc1 = 8.611824221e-22
+ kt1l = 0.0
+ prt = 0.0
+ tvoff = -2.065673479e-03 ltvoff = 3.379766350e-10 wtvoff = 4.235495463e-09 ptvoff = -3.378288784e-14
+ njs = 1.2928
+ tpb = 0.0012287
+ tcj = 0.000792
+ tpbsw = 0.0
+ tcjsw = 1.0e-5
+ tpbswg = 0.0
+ tcjswg = 0.0
+ xtis = 2.0
+ tvfbsdoff = 0.0
* DW AND DL Parameters
+ ll = 0.0
+ wl = 0.0
+ lln = 1.0
+ wln = 1.0
+ lw = 0.0
+ ww = 0.0
+ lwn = 1.0
+ wwn = 1.0
+ lwl = 0.0
+ wwl = 0.0
+ llc = 0.0
+ wlc = 0.0
+ lwc = 0.0
+ wwc = 0.0
+ lwlc = 0.0
+ wwlc = 0.0
* Stress Parameters
+ saref = 3.0e-6
+ sbref = 3.0e-6
+ kvth0 = 9.8e-9
+ lkvth0 = 0.0
+ wkvth0 = 2.0e-7
+ pkvth0 = 0.0
+ llodvth = 0.0
+ wlodvth = 1.0
+ wlod = 0.0
+ stk2 = 0.0
+ lodk2 = 1.0
+ lodeta0 = 1.0
+ ku0 = -2.7e-8
+ lku0 = 0.0
+ wku0 = 0.0
+ pku0 = 0.0
+ tku0 = 0.0
+ llodku0 = 0.0
+ wlodku0 = 1.0
+ kvsat = 0.2
+ steta0 = 0.0
* Well Proximity Effect Parameters
.model sky130_fd_pr__nfet_01v8__model.3 nmos
* Model Flag Parameters
+ lmin = 2.0e-06 lmax = 4.0e-06 wmin = 7.0e-06 wmax = 0.0001
+ level = 54.0
+ version = 4.5
+ binunit = 2.0
+ mobmod = 0.0
+ capmod = 2.0
+ igcmod = 0.0
+ igbmod = 0.0
+ geomod = 0.0
+ diomod = 1.0
+ rdsmod = 0.0
+ rbodymod = 1.0
+ rgatemod = 0.0
+ permod = 1.0
+ acnqsmod = 0.0
+ trnqsmod = 0.0
+ fnoimod = 1.0
+ tnoimod = 1.0
+ tempmod = 0.0
* Process Parameters
+ toxe = {4.148e-09+sky130_fd_pr__nfet_01v8__toxe_slope_spectre*(4.148e-09*1.0*(sky130_fd_pr__nfet_01v8__toxe_slope/sqrt(l*w*mult)))}
+ toxm = 4.148e-9
+ dtox = 0.0
+ epsrox = 3.9
+ xj = 1.5e-7
+ ngate = 1.0e+23
+ ndep = 1.7e+17
+ nsd = 1.0e+20
+ rsh = 1.0
+ rshg = 0.1
* Basic Model Parameters
+ wint = 2.1859e-8
+ lint = 1.1932e-8
+ vth0 = {5.257881703e-01+sky130_fd_pr__nfet_01v8__vth0_slope_spectre*(sky130_fd_pr__nfet_01v8__vth0_slope/sqrt(l*w*mult))} lvth0 = 3.805286631e-08 wvth0 = 7.970998398e-08 pvth0 = -3.137065901e-14
+ k1 = 5.304574419e-01 lk1 = 3.866386370e-08 wk1 = 1.369158390e-07 pk1 = -2.724562297e-13
+ k2 = -2.326625831e-02 lk2 = -2.831708931e-08 wk2 = -8.771961924e-08 pk2 = 1.455296915e-13
+ k3 = 2.0
+ k3b = 0.54
+ w0 = 0.0
+ dvt0 = 0.0
+ dvt1 = 0.53
+ dvt2 = -0.032
+ dvt0w = -3.58
+ dvt1w = 1670600.0
+ dvt2w = 0.068
+ dsub = 5.378281302e-01 ldsub = 8.815836977e-08 wdsub = 2.216217672e-06 pdsub = -8.811982869e-12
+ minv = 0.0
+ voffl = 5.8197729e-9
+ lpe0 = 1.0325e-7
+ lpeb = -7.082e-8
+ vbm = -3.0
+ dvtp0 = 0.0
+ dvtp1 = 0.0
+ phin = 0.0
+ cdsc = 0.0
+ cdscb = 0.0
+ cdscd = 0.0054
+ cit = 0.0
+ voff = {-1.918053716e-01+sky130_fd_pr__nfet_01v8__voff_slope_spectre*(sky130_fd_pr__nfet_01v8__voff_slope/sqrt(l*w*mult))} lvoff = 3.833199408e-08 wvoff = 8.704284409e-08 pvoff = -6.062996693e-14
+ nfactor = 2.285160074e+00 lnfactor = 7.297789931e-08 wnfactor = 3.384011255e-07 pnfactor = -8.582871314e-13
+ eta0 = 7.412445450e-02 leta0 = 2.336196799e-08 weta0 = 5.872976830e-07 peta0 = -2.335175460e-12
+ etab = -6.486356790e-02 letab = -2.042315258e-08 wetab = -5.134186554e-07 petab = 2.041422399e-12
+ u0 = 3.254619738e-02 lu0 = -3.881813322e-10 wu0 = 9.133334821e-09 pu0 = -4.246758904e-14
+ ua = -7.772766349e-10 lua = 7.246970951e-17 wua = 1.349633081e-15 pua = -5.212555164e-21
+ ub = 1.715448650e-18 lub = -1.556384353e-25 wub = -1.333196930e-24 pub = 4.460978208e-30
+ uc = 5.877915793e-11 luc = -3.603337616e-17 wuc = -3.264462550e-16 puc = 1.109311150e-21
+ ud = 0.0
+ up = 0.0
+ lp = 1.0
+ eu = 1.67
+ vtl = 0.0
+ xn = 3.0
+ vsat = 80000.0
+ a0 = 1.424425234e+00 la0 = -4.699560085e-07 wa0 = -1.455090090e-06 pa0 = 2.412133444e-12
+ ags = 4.202144348e-01 lags = 3.432890182e-08 wags = -1.084612175e-06 pags = 4.946812196e-12
+ a1 = 0.0
+ a2 = 0.42385546
+ b0 = 0.0
+ b1 = 4.502912266e-24 lb1 = -8.898367034e-30 wb1 = -3.132352754e-29 pb1 = 6.189955043e-35
+ keta = -1.640202815e-02 lketa = 2.822200432e-08 wketa = 8.756343093e-08 pketa = -1.456362283e-13
+ dwg = 0.0
+ dwb = 0.0
+ pclm = -6.131369147e-01 lpclm = 2.375792818e-06 wpclm = 8.540188246e-06 ppclm = -1.728834668e-11
+ pdiblc1 = 0.39
+ pdiblc2 = 3.181248537e-03 lpdiblc2 = -4.336808822e-10 wpdiblc2 = -1.246582526e-08 ppdiblc2 = 5.007497679e-14
+ pdiblcb = -0.025
+ drout = 0.56
+ pscbe1 = 7.031489705e+08 lpscbe1 = 1.913908060e+02 wpscbe1 = 6.737230730e+02 ppscbe1 = -1.331368419e-3
+ pscbe2 = 1.0e-12
+ pvag = 0.0
+ delta = 0.01
+ fprout = 0.0
+ pdits = 0.0
+ pditsl = 0.0
+ pditsd = 0.0
+ lambda = 0.0
+ lc = 5.0e-9
* Parameters FOR Asymmetric AND Bias-Dependent RDS Model
+ rdsw = 65.968
+ rsw = 0.0
+ rdw = 0.0
+ rdswmin = 0.0
+ rdwmin = 0.0
+ rswmin = 0.0
+ prwb = 0.0
+ prwg = 0.021507
+ wr = 1.0
* Impact Ionization Current Model Parameters
+ alpha0 = 3.0e-8
+ alpha1 = 0.85
+ beta0 = 13.86
* Gidl Induced Drain Leakage Model Parameters
+ agidl = 0.0
+ bgidl = 2300000000.0
+ cgidl = 0.5
+ egidl = 0.8
* Gate Dielectric Tunneling Current Model Parameters
+ toxref = 4.148e-9
+ dlcig = 0.0
+ aigbacc = 1.0
+ bigbacc = 0.0
+ cigbacc = 0.0
+ nigbacc = 0.0
+ aigbinv = 0.35
+ bigbinv = 0.03
+ cigbinv = 0.006
+ eigbinv = 1.1
+ nigbinv = 0.0
+ aigc = 0.43
+ bigc = 0.054
+ cigc = 0.075
+ aigsd = 0.43
+ bigsd = 0.054
+ cigsd = 0.075
+ nigc = 0.0
+ poxedge = 1.0
+ pigcd = 1.0
+ ntox = 1.0
+ vfbsdoff = 0.0
* Charge AND Capacitance Model Parameters
+ dlc = 9.87909e-9
+ dwc = 0.0
+ xpart = 0.0
+ cgso = 2.449068e-10
+ cgdo = 2.449068e-10
+ cgbo = 1.0e-13
+ cgdl = 0.0
+ cgsl = 0.0
+ clc = 1.0e-7
+ cle = 0.6
+ cf = 1.4067e-12
+ ckappas = 0.6
+ vfbcv = -1.0
+ acde = 0.4
+ moin = 6.9
+ noff = 3.4037
+ voffcv = -0.17287
* High-Speed/RF Model Parameters
+ xrcrg1 = 12.0
+ xrcrg2 = 1.0
+ rbpb = 50.0
+ rbpd = 50.0
+ rbps = 50.0
+ rbdb = 50.0
+ rbsb = 50.0
+ gbmin = 1.0e-12
* Flicker AND Thermal Noise Model Parameters
+ ef = 0.84
+ noia = 2.5e+42
+ noib = 0.0
+ noic = 0.0
+ em = 41000000.0
+ ntnoi = 1.0
+ lintnoi = -1.0e-7
+ af = 1.0
+ kf = 0.0
+ tnoia = 15000000.0
+ tnoib = 9900000.0
+ rnoia = 0.94
+ rnoib = 0.26
* Layout-Dependent Parasitics Model Parameters
+ xl = 0.0
+ xw = 0.0
+ dmcg = 0.0
+ dmdg = 0.0
+ dmcgt = 0.0
+ xgw = 0.0
+ xgl = 0.0
+ ngcon = 1.0
* Asymmetric Source/Drain Junction Diode Model Parameters
+ jss = 0.00275
+ jsws = 6.0e-10
+ ijthsfwd = 0.1
+ ijthsrev = 0.1
+ bvs = 11.7
+ xjbvs = 1.0
+ pbs = 0.729
+ cjs = 0.001339749237
+ mjs = 0.44
+ pbsws = 0.2
+ cjsws = 3.67354204e-11
+ mjsws = 0.0009
+ pbswgs = 0.95578
+ cjswgs = 2.38232788e-10
+ mjswgs = 0.8
* Temperature Dependence Parameters
+ tnom = 30.0
+ kt1 = -3.112847401e-01 lkt1 = -6.311855597e-09 wkt1 = 3.394151730e-08 pkt1 = -1.976821490e-13
+ kt2 = -4.403955904e-02 lkt2 = -4.731192969e-09 wkt2 = -1.656662876e-08 pkt2 = 3.253360577e-14
+ at = 1.381479098e+05 lat = 7.364162488e-03 wat = 1.851280495e-01 pat = -7.360943023e-7
+ ute = -1.757935204e+00 lute = -2.086986568e-07 wute = -1.613263360e-06 pute = 5.231380497e-12
+ ua1 = 6.225548039e-10 lua1 = -9.216780498e-16 wua1 = -5.190223011e-15 pua1 = 1.478180753e-20
+ ub1 = -9.463016587e-19 lub1 = 1.142720834e-24 wub1 = 5.188563162e-24 pub1 = -1.296507040e-29
+ uc1 = -2.357426518e-13 luc1 = 5.955775258e-17 wuc1 = 1.710346184e-16 puc1 = -2.481773957e-22
+ kt1l = 0.0
+ prt = 0.0
+ tvoff = -1.421023671e-03 ltvoff = -2.225238676e-09 wtvoff = -3.915924870e-09 ptvoff = -1.371732000e-15
+ njs = 1.2928
+ tpb = 0.0012287
+ tcj = 0.000792
+ tpbsw = 0.0
+ tcjsw = 1.0e-5
+ tpbswg = 0.0
+ tcjswg = 0.0
+ xtis = 2.0
+ tvfbsdoff = 0.0
* DW AND DL Parameters
+ ll = 0.0
+ wl = 0.0
+ lln = 1.0
+ wln = 1.0
+ lw = 0.0
+ ww = 0.0
+ lwn = 1.0
+ wwn = 1.0
+ lwl = 0.0
+ wwl = 0.0
+ llc = 0.0
+ wlc = 0.0
+ lwc = 0.0
+ wwc = 0.0
+ lwlc = 0.0
+ wwlc = 0.0
* Stress Parameters
+ saref = 3.0e-6
+ sbref = 3.0e-6
+ kvth0 = 9.8e-9
+ lkvth0 = 0.0
+ wkvth0 = 2.0e-7
+ pkvth0 = 0.0
+ llodvth = 0.0
+ wlodvth = 1.0
+ wlod = 0.0
+ stk2 = 0.0
+ lodk2 = 1.0
+ lodeta0 = 1.0
+ ku0 = -2.7e-8
+ lku0 = 0.0
+ wku0 = 0.0
+ pku0 = 0.0
+ tku0 = 0.0
+ llodku0 = 0.0
+ wlodku0 = 1.0
+ kvsat = 0.2
+ steta0 = 0.0
* Well Proximity Effect Parameters
.model sky130_fd_pr__nfet_01v8__model.4 nmos
* Model Flag Parameters
+ lmin = 1.0e-06 lmax = 2.0e-06 wmin = 7.0e-06 wmax = 0.0001
+ level = 54.0
+ version = 4.5
+ binunit = 2.0
+ mobmod = 0.0
+ capmod = 2.0
+ igcmod = 0.0
+ igbmod = 0.0
+ geomod = 0.0
+ diomod = 1.0
+ rdsmod = 0.0
+ rbodymod = 1.0
+ rgatemod = 0.0
+ permod = 1.0
+ acnqsmod = 0.0
+ trnqsmod = 0.0
+ fnoimod = 1.0
+ tnoimod = 1.0
+ tempmod = 0.0
* Process Parameters
+ toxe = {4.148e-09+sky130_fd_pr__nfet_01v8__toxe_slope_spectre*(4.148e-09*1.0*(sky130_fd_pr__nfet_01v8__toxe_slope/sqrt(l*w*mult)))}
+ toxm = 4.148e-9
+ dtox = 0.0
+ epsrox = 3.9
+ xj = 1.5e-7
+ ngate = 1.0e+23
+ ndep = 1.7e+17
+ nsd = 1.0e+20
+ rsh = 1.0
+ rshg = 0.1
* Basic Model Parameters
+ wint = 2.1859e-8
+ lint = 1.1932e-8
+ vth0 = {5.461881904e-01+sky130_fd_pr__nfet_01v8__vth0_slope_spectre*(sky130_fd_pr__nfet_01v8__vth0_slope/sqrt(l*w*mult))} lvth0 = -2.260347812e-09 wvth0 = -5.049695639e-08 pvth0 = 2.259359633e-13
+ k1 = 5.524870904e-01 lk1 = -4.869717742e-09 wk1 = -2.472758915e-07 pk1 = 4.867588799e-13
+ k2 = -3.838702190e-02 lk2 = 1.563595979e-09 wk2 = 6.501325548e-08 pk2 = -1.562912406e-13
+ k3 = 2.0
+ k3b = 0.54
+ w0 = 0.0
+ dvt0 = 0.0
+ dvt1 = 0.53
+ dvt2 = -0.032
+ dvt0w = -3.58
+ dvt1w = 1670600.0
+ dvt2w = 0.068
+ dsub = 5.824396194e-01 wdsub = -2.242980920e-6
+ minv = 0.0
+ voffl = 5.8197729e-9
+ lpe0 = 1.0325e-7
+ lpeb = -7.082e-8
+ vbm = -3.0
+ dvtp0 = 0.0
+ dvtp1 = 0.0
+ phin = 0.0
+ cdsc = 0.0
+ cdscb = 0.0
+ cdscd = 0.0054
+ cit = 0.0
+ voff = {-1.731593458e-01+sky130_fd_pr__nfet_01v8__voff_slope_spectre*(sky130_fd_pr__nfet_01v8__voff_slope/sqrt(l*w*mult))} lvoff = 1.484911228e-09 wvoff = 1.314710811e-07 pvoff = -1.484262055e-13
+ nfactor = 2.306233618e+00 lnfactor = 3.133371024e-08 wnfactor = 1.488986938e-06 pnfactor = -3.132001177e-12
+ eta0 = 8.609480828e-02 leta0 = -2.930790459e-10 weta0 = -6.092143748e-07 peta0 = 2.929509176e-14
+ etab = -7.518471959e-02 letab = -2.715316148e-11 wetab = 5.182452938e-07 petab = 2.714129066e-15
+ u0 = 3.203839579e-02 lu0 = 6.153036758e-10 wu0 = 1.876621368e-08 pu0 = -6.150346773e-14
+ ua = -7.784147269e-10 lua = 7.471873419e-17 wua = 2.491281076e-15 pua = -7.468606865e-21
+ ub = 1.671533075e-18 lub = -6.885528766e-26 wub = -2.558588474e-24 pub = 6.882518551e-30
+ uc = 3.956352106e-11 luc = 1.939335609e-18 wuc = 3.330022481e-16 puc = -1.938487771e-22
+ ud = 0.0
+ up = 0.0
+ lp = 1.0
+ eu = 1.67
+ vtl = 0.0
+ xn = 3.0
+ vsat = 8.148217881e+04 lvsat = -2.928986896e-03 wvsat = -1.481530827e-01 pvsat = 2.927706402e-7
+ a0 = 1.176203689e+00 la0 = 2.056352243e-08 wa0 = 8.056787490e-07 pa0 = -2.055453247e-12
+ ags = 4.608595850e-01 lags = -4.599144281e-08 wags = -9.076615155e-07 pags = 4.597133627e-12
+ a1 = 0.0
+ a2 = 0.42385546
+ b0 = 0.0
+ b1 = 0.0
+ keta = -6.862460185e-03 lketa = 9.370520639e-09 wketa = 4.878426501e-07 pketa = -9.366424034e-13
+ dwg = 0.0
+ dwb = 0.0
+ pclm = 5.768770306e-01 lpclm = 2.416342047e-08 wpclm = 1.013853514e-06 ppclm = -2.415285670e-12
+ pdiblc1 = 4.131572185e-01 lpdiblc1 = -4.576181312e-08 wpdiblc1 = -2.314709462e-06 ppdiblc1 = 4.574180697e-12
+ pdiblc2 = 2.903299932e-03 lpdiblc2 = 1.155833635e-10 wpdiblc2 = 1.872041904e-08 ppdiblc2 = -1.155328327e-14
+ pdiblcb = -2.318864550e-02 lpdiblcb = -3.579482830e-09 wpdiblcb = -1.810562609e-07 ppdiblcb = 3.577917952e-13
+ drout = 5.380958797e-01 ldrout = 4.328552063e-08 wdrout = 2.189454424e-06 pdrout = -4.326659707e-12
+ pscbe1 = 7.606510411e+08 lpscbe1 = 7.775889417e+01 wpscbe1 = 3.933175629e+03 ppscbe1 = -7.772489954e-3
+ pscbe2 = 1.0e-12
+ pvag = 0.0
+ delta = 0.01
+ fprout = 0.0
+ pdits = 0.0
+ pditsl = 0.0
+ pditsd = 0.0
+ lambda = 0.0
+ lc = 5.0e-9
* Parameters FOR Asymmetric AND Bias-Dependent RDS Model
+ rdsw = 65.968
+ rsw = 0.0
+ rdw = 0.0
+ rdswmin = 0.0
+ rdwmin = 0.0
+ rswmin = 0.0
+ prwb = 0.0
+ prwg = 0.021507
+ wr = 1.0
* Impact Ionization Current Model Parameters
+ alpha0 = 2.205658464e-07 lalpha0 = -3.765840295e-13 walpha0 = -1.904825348e-11 palpha0 = 3.764193945e-17
+ alpha1 = 8.524824670e-01 lalpha1 = -4.905692338e-09 walpha1 = -2.481381680e-07 palpha1 = 4.903547668e-13
+ beta0 = 1.406239407e+01 lbeta0 = -3.999582106e-07 wbeta0 = -2.023055887e-05 pbeta0 = 3.997833569e-11
* Gidl Induced Drain Leakage Model Parameters
+ agidl = 0.0
+ bgidl = 2300000000.0
+ cgidl = 0.5
+ egidl = 0.8
* Gate Dielectric Tunneling Current Model Parameters
+ toxref = 4.148e-9
+ dlcig = 0.0
+ aigbacc = 1.0
+ bigbacc = 0.0
+ cigbacc = 0.0
+ nigbacc = 0.0
+ aigbinv = 0.35
+ bigbinv = 0.03
+ cigbinv = 0.006
+ eigbinv = 1.1
+ nigbinv = 0.0
+ aigc = 0.43
+ bigc = 0.054
+ cigc = 0.075
+ aigsd = 0.43
+ bigsd = 0.054
+ cigsd = 0.075
+ nigc = 0.0
+ poxedge = 1.0
+ pigcd = 1.0
+ ntox = 1.0
+ vfbsdoff = 0.0
* Charge AND Capacitance Model Parameters
+ dlc = 9.87909e-9
+ dwc = 0.0
+ xpart = 0.0
+ cgso = 2.449068e-10
+ cgdo = 2.449068e-10
+ cgbo = 1.0e-13
+ cgdl = 0.0
+ cgsl = 0.0
+ clc = 1.0e-7
+ cle = 0.6
+ cf = 1.4067e-12
+ ckappas = 0.6
+ vfbcv = -1.0
+ acde = 0.4
+ moin = 6.9
+ noff = 3.4037
+ voffcv = -0.17287
* High-Speed/RF Model Parameters
+ xrcrg1 = 12.0
+ xrcrg2 = 1.0
+ rbpb = 50.0
+ rbpd = 50.0
+ rbps = 50.0
+ rbdb = 50.0
+ rbsb = 50.0