* Copyright 2020 The SkyWater PDK Authors
*
* Licensed under the Apache License, Version 2.0 (the "License");
* you may not use this file except in compliance with the License.
* You may obtain a copy of the License at
*
*     https://www.apache.org/licenses/LICENSE-2.0
*
* Unless required by applicable law or agreed to in writing, software
* distributed under the License is distributed on an "AS IS" BASIS,
* WITHOUT WARRANTIES OR CONDITIONS OF ANY KIND, either express or implied.
* See the License for the specific language governing permissions and
* limitations under the License.

* SKY130 Spice File.
.param sky130_fd_pr__nfet_01v8__toxe_slope_spectre = 0.0
.param sky130_fd_pr__nfet_01v8__vth0_slope_spectre = 0.0
.param sky130_fd_pr__nfet_01v8__voff_slope_spectre = 0.0
* statistics {
*   process {
*   }
*   mismatch {
*     vary sky130_fd_pr__nfet_01v8__toxe_slope_spectre dist=gauss std = 1.0
*     vary sky130_fd_pr__nfet_01v8__vth0_slope_spectre dist=gauss std = 1.0
*     vary sky130_fd_pr__nfet_01v8__voff_slope_spectre dist=gauss std = 1.0
*   }
* }
.subckt  sky130_fd_pr__nfet_01v8 d g s b
+ 
.param  l = 1 w = 1 ad = 0 as = 0 pd = 0 ps = 0 nrd = 0 nrs = 0 sa = 0 sb = 0 sd = 0 mult = 1 nf = 1.0
msky130_fd_pr__nfet_01v8 d g s b sky130_fd_pr__nfet_01v8__model l = {l} w = {w} ad = {ad} as = {as} pd = {pd} ps = {ps} nrd = {nrd} nrs = {nrs} sa = {sa} sb = {sb} sd = {sd} nf = {nf}
.model sky130_fd_pr__nfet_01v8__model.0 nmos
* Model Flag Parameters
+ lmin = 2.0e-05 lmax = 0.0001 wmin = 7.0e-06 wmax = 0.0001
+ level = 54.0
+ version = 4.5
+ binunit = 2.0
+ mobmod = 0.0
+ capmod = 2.0
+ igcmod = 0.0
+ igbmod = 0.0
+ geomod = 0.0
+ diomod = 1.0
+ rdsmod = 0.0
+ rbodymod = 1.0
+ rgatemod = 0.0
+ permod = 1.0
+ acnqsmod = 0.0
+ trnqsmod = 0.0
+ fnoimod = 1.0
+ tnoimod = 1.0
+ tempmod = 0.0
* Process Parameters
+ toxe = {4.299402e-09+sky130_fd_pr__nfet_01v8__toxe_slope_spectre*(4.148e-09*1.0365*(sky130_fd_pr__nfet_01v8__toxe_slope/sqrt(l*w*mult)))}
+ toxm = 4.148e-9
+ dtox = 0.0
+ epsrox = 3.9
+ xj = 1.5e-7
+ ngate = 1.0e+23
+ ndep = 1.7e+17
+ nsd = 1.0e+20
+ rsh = 1.0
+ rshg = 0.1
* Basic Model Parameters
+ wint = 4.4379e-8
+ lint = -1.955e-10
+ vth0 = {0.5164001+sky130_fd_pr__nfet_01v8__vth0_slope_spectre*(sky130_fd_pr__nfet_01v8__vth0_slope/sqrt(l*w*mult))}
+ k1 = 0.54086565
+ k2 = -0.026610291
+ k3 = 2.0
+ k3b = 0.54
+ w0 = 0.0
+ dvt0 = 0.0
+ dvt1 = 0.53
+ dvt2 = -0.032
+ dvt0w = -3.58
+ dvt1w = 1670600.0
+ dvt2w = 0.068
+ dsub = 0.56
+ minv = 0.0
+ voffl = 5.8197729e-9
+ lpe0 = 1.0325e-7
+ lpeb = -7.082e-8
+ vbm = -3.0
+ dvtp0 = 0.0
+ dvtp1 = 0.0
+ phin = 0.0
+ cdsc = 0.0
+ cdscb = 0.0
+ cdscd = 0.0054
+ cit = 0.0
+ voff = {-0.1052686+sky130_fd_pr__nfet_01v8__voff_slope_spectre*(sky130_fd_pr__nfet_01v8__voff_slope/sqrt(l*w*mult))}
+ nfactor = 2.68257
+ eta0 = 0.08
+ etab = -0.07
+ u0 = 0.0311586
+ ua = -7.5672677e-10
+ ub = 1.58789e-18
+ uc = 4.9242e-11
+ ud = 0.0
+ up = 0.0
+ lp = 1.0
+ eu = 1.67
+ vtl = 0.0
+ xn = 3.0
+ vsat = 80000.0
+ a0 = 1.38376
+ ags = 0.368846
+ a1 = 0.0
+ a2 = 0.42385546
+ b0 = 0.0
+ b1 = 2.1073424e-24
+ keta = -0.0087946
+ dwg = 0.0
+ dwb = 0.0
+ pclm = 0.026316
+ pdiblc1 = 0.39
+ pdiblc2 = 0.0030734587
+ pdiblcb = -0.025
+ drout = 0.56
+ pscbe1 = 754674160.0
+ pscbe2 = 1.0e-12
+ pvag = 0.0
+ delta = 0.01
+ fprout = 0.0
+ pdits = 0.0
+ pditsl = 0.0
+ pditsd = 0.0
+ lambda = 0.0
+ lc = 5.0e-9
* Parameters FOR Asymmetric AND Bias-Dependent RDS Model
+ rdsw = 65.968
+ rsw = 0.0
+ rdw = 0.0
+ rdswmin = 0.0
+ rdwmin = 0.0
+ rswmin = 0.0
+ prwb = 0.0
+ prwg = 0.021507
+ wr = 1.0
* Impact Ionization Current Model Parameters
+ alpha0 = 3.0e-8
+ alpha1 = 0.85
+ beta0 = 13.86
* Gidl Induced Drain Leakage Model Parameters
+ agidl = 0.0
+ bgidl = 2300000000.0
+ cgidl = 0.5
+ egidl = 0.8
* Gate Dielectric Tunneling Current Model Parameters
+ toxref = 4.148e-9
+ dlcig = 0.0
+ aigbacc = 1.0
+ bigbacc = 0.0
+ cigbacc = 0.0
+ nigbacc = 0.0
+ aigbinv = 0.35
+ bigbinv = 0.03
+ cigbinv = 0.006
+ eigbinv = 1.1
+ nigbinv = 0.0
+ aigc = 0.43
+ bigc = 0.054
+ cigc = 0.075
+ aigsd = 0.43
+ bigsd = 0.054
+ cigsd = 0.075
+ nigc = 0.0
+ poxedge = 1.0
+ pigcd = 1.0
+ ntox = 1.0
+ vfbsdoff = 0.0
* Charge AND Capacitance Model Parameters
+ dlc = -6.13e-10
+ dwc = 2.252e-8
+ xpart = 0.0
+ cgso = 2.4892e-10
+ cgdo = 2.4892e-10
+ cgbo = 1.0e-13
+ cgdl = 0.0
+ cgsl = 0.0
+ clc = 1.0e-7
+ cle = 0.6
+ cf = 1.4067e-12
+ ckappas = 0.6
+ vfbcv = -1.0
+ acde = 0.4
+ moin = 6.9
+ noff = 3.4037
+ voffcv = -0.17287
* High-Speed/RF Model Parameters
+ xrcrg1 = 12.0
+ xrcrg2 = 1.0
+ rbpb = 50.0
+ rbpd = 50.0
+ rbps = 50.0
+ rbdb = 50.0
+ rbsb = 50.0
+ gbmin = 1.0e-12
* Flicker AND Thermal Noise Model Parameters
+ ef = 0.84
+ noia = 2.5e+42
+ noib = 0.0
+ noic = 0.0
+ em = 41000000.0
+ ntnoi = 1.0
+ lintnoi = -1.0e-7
+ af = 1.0
+ kf = 0.0
+ tnoia = 15000000.0
+ tnoib = 9900000.0
+ rnoia = 0.94
+ rnoib = 0.26
* Layout-Dependent Parasitics Model Parameters
+ xl = 0.0
+ xw = 0.0
+ dmcg = 0.0
+ dmdg = 0.0
+ dmcgt = 0.0
+ xgw = 0.0
+ xgl = 0.0
+ ngcon = 1.0
* Asymmetric Source/Drain Junction Diode Model Parameters
+ jss = 0.00275
+ jsws = 6.0e-10
+ ijthsfwd = 0.1
+ ijthsrev = 0.1
+ bvs = 11.7
+ xjbvs = 1.0
+ pbs = 0.729
+ cjs = 0.00154845795
+ mjs = 0.44
+ pbsws = 0.2
+ cjsws = 4.24559793e-11
+ mjsws = 0.0009
+ pbswgs = 0.95578
+ cjswgs = 2.75331171e-10
+ mjswgs = 0.8
* Temperature Dependence Parameters
+ tnom = 30.0
+ kt1 = -0.31303
+ kt2 = -0.045313337
+ at = 140000.0
+ ute = -1.8134
+ ua1 = 3.7602e-10
+ ub1 = -6.3962e-19
+ uc1 = 1.5829713e-11
+ kt1l = 0.0
+ prt = 0.0
+ tvoff = 0.0
+ njs = 1.2928
+ tpb = 0.0012287
+ tcj = 0.000792
+ tpbsw = 0.0
+ tcjsw = 1.0e-5
+ tpbswg = 0.0
+ tcjswg = 0.0
+ xtis = 2.0
+ tvfbsdoff = 0.0
* DW AND DL Parameters
+ ll = 0.0
+ wl = 0.0
+ lln = 1.0
+ wln = 1.0
+ lw = 0.0
+ ww = 0.0
+ lwn = 1.0
+ wwn = 1.0
+ lwl = 0.0
+ wwl = 0.0
+ llc = 0.0
+ wlc = 0.0
+ lwc = 0.0
+ wwc = 0.0
+ lwlc = 0.0
+ wwlc = 0.0
* Stress Parameters
+ saref = 3.0e-6
+ sbref = 3.0e-6
+ kvth0 = 9.8e-9
+ lkvth0 = 0.0
+ wkvth0 = 2.0e-7
+ pkvth0 = 0.0
+ llodvth = 0.0
+ wlodvth = 1.0
+ wlod = 0.0
+ stk2 = 0.0
+ lodk2 = 1.0
+ lodeta0 = 1.0
+ ku0 = -2.7e-8
+ lku0 = 0.0
+ wku0 = 0.0
+ pku0 = 0.0
+ tku0 = 0.0
+ llodku0 = 0.0
+ wlodku0 = 1.0
+ kvsat = 0.2
+ steta0 = 0.0
* Well Proximity Effect Parameters
.model sky130_fd_pr__nfet_01v8__model.1 nmos
* Model Flag Parameters
+ lmin = 8.0e-06 lmax = 2.0e-05 wmin = 7.0e-06 wmax = 0.0001
+ level = 54.0
+ version = 4.5
+ binunit = 2.0
+ mobmod = 0.0
+ capmod = 2.0
+ igcmod = 0.0
+ igbmod = 0.0
+ geomod = 0.0
+ diomod = 1.0
+ rdsmod = 0.0
+ rbodymod = 1.0
+ rgatemod = 0.0
+ permod = 1.0
+ acnqsmod = 0.0
+ trnqsmod = 0.0
+ fnoimod = 1.0
+ tnoimod = 1.0
+ tempmod = 0.0
* Process Parameters
+ toxe = {4.299402e-09+sky130_fd_pr__nfet_01v8__toxe_slope_spectre*(4.148e-09*1.0365*(sky130_fd_pr__nfet_01v8__toxe_slope/sqrt(l*w*mult)))}
+ toxm = 4.148e-9
+ dtox = 0.0
+ epsrox = 3.9
+ xj = 1.5e-7
+ ngate = 1.0e+23
+ ndep = 1.7e+17
+ nsd = 1.0e+20
+ rsh = 1.0
+ rshg = 0.1
* Basic Model Parameters
+ wint = 4.4379e-8
+ lint = -1.955e-10
+ vth0 = {0.5164001+sky130_fd_pr__nfet_01v8__vth0_slope_spectre*(sky130_fd_pr__nfet_01v8__vth0_slope/sqrt(l*w*mult))}
+ k1 = 0.54086565
+ k2 = -0.026610291
+ k3 = 2.0
+ k3b = 0.54
+ w0 = 0.0
+ dvt0 = 0.0
+ dvt1 = 0.53
+ dvt2 = -0.032
+ dvt0w = -3.58
+ dvt1w = 1670600.0
+ dvt2w = 0.068
+ dsub = 0.56
+ minv = 0.0
+ voffl = 5.8197729e-9
+ lpe0 = 1.0325e-7
+ lpeb = -7.082e-8
+ vbm = -3.0
+ dvtp0 = 0.0
+ dvtp1 = 0.0
+ phin = 0.0
+ cdsc = 0.0
+ cdscb = 0.0
+ cdscd = 0.0054
+ cit = 0.0
+ voff = {-0.1052686+sky130_fd_pr__nfet_01v8__voff_slope_spectre*(sky130_fd_pr__nfet_01v8__voff_slope/sqrt(l*w*mult))}
+ nfactor = 2.68257
+ eta0 = 0.08
+ etab = -0.07
+ u0 = 0.0311586
+ ua = -7.5672677e-10
+ ub = 1.58789e-18
+ uc = 4.9242e-11
+ ud = 0.0
+ up = 0.0
+ lp = 1.0
+ eu = 1.67
+ vtl = 0.0
+ xn = 3.0
+ vsat = 80000.0
+ a0 = 1.38376
+ ags = 0.368846
+ a1 = 0.0
+ a2 = 0.42385546
+ b0 = 0.0
+ b1 = 2.1073424e-24
+ keta = -0.0087946
+ dwg = 0.0
+ dwb = 0.0
+ pclm = 0.026316
+ pdiblc1 = 0.39
+ pdiblc2 = 0.0030734587
+ pdiblcb = -0.025
+ drout = 0.56
+ pscbe1 = 754674160.0
+ pscbe2 = 1.0e-12
+ pvag = 0.0
+ delta = 0.01
+ fprout = 0.0
+ pdits = 0.0
+ pditsl = 0.0
+ pditsd = 0.0
+ lambda = 0.0
+ lc = 5.0e-9
* Parameters FOR Asymmetric AND Bias-Dependent RDS Model
+ rdsw = 65.968
+ rsw = 0.0
+ rdw = 0.0
+ rdswmin = 0.0
+ rdwmin = 0.0
+ rswmin = 0.0
+ prwb = 0.0
+ prwg = 0.021507
+ wr = 1.0
* Impact Ionization Current Model Parameters
+ alpha0 = 3.0e-8
+ alpha1 = 0.85
+ beta0 = 13.86
* Gidl Induced Drain Leakage Model Parameters
+ agidl = 0.0
+ bgidl = 2300000000.0
+ cgidl = 0.5
+ egidl = 0.8
* Gate Dielectric Tunneling Current Model Parameters
+ toxref = 4.148e-9
+ dlcig = 0.0
+ aigbacc = 1.0
+ bigbacc = 0.0
+ cigbacc = 0.0
+ nigbacc = 0.0
+ aigbinv = 0.35
+ bigbinv = 0.03
+ cigbinv = 0.006
+ eigbinv = 1.1
+ nigbinv = 0.0
+ aigc = 0.43
+ bigc = 0.054
+ cigc = 0.075
+ aigsd = 0.43
+ bigsd = 0.054
+ cigsd = 0.075
+ nigc = 0.0
+ poxedge = 1.0
+ pigcd = 1.0
+ ntox = 1.0
+ vfbsdoff = 0.0
* Charge AND Capacitance Model Parameters
+ dlc = -6.13e-10
+ dwc = 2.252e-8
+ xpart = 0.0
+ cgso = 2.4892e-10
+ cgdo = 2.4892e-10
+ cgbo = 1.0e-13
+ cgdl = 0.0
+ cgsl = 0.0
+ clc = 1.0e-7
+ cle = 0.6
+ cf = 1.4067e-12
+ ckappas = 0.6
+ vfbcv = -1.0
+ acde = 0.4
+ moin = 6.9
+ noff = 3.4037
+ voffcv = -0.17287
* High-Speed/RF Model Parameters
+ xrcrg1 = 12.0
+ xrcrg2 = 1.0
+ rbpb = 50.0
+ rbpd = 50.0
+ rbps = 50.0
+ rbdb = 50.0
+ rbsb = 50.0
+ gbmin = 1.0e-12
* Flicker AND Thermal Noise Model Parameters
+ ef = 0.84
+ noia = 2.5e+42
+ noib = 0.0
+ noic = 0.0
+ em = 41000000.0
+ ntnoi = 1.0
+ lintnoi = -1.0e-7
+ af = 1.0
+ kf = 0.0
+ tnoia = 15000000.0
+ tnoib = 9900000.0
+ rnoia = 0.94
+ rnoib = 0.26
* Layout-Dependent Parasitics Model Parameters
+ xl = 0.0
+ xw = 0.0
+ dmcg = 0.0
+ dmdg = 0.0
+ dmcgt = 0.0
+ xgw = 0.0
+ xgl = 0.0
+ ngcon = 1.0
* Asymmetric Source/Drain Junction Diode Model Parameters
+ jss = 0.00275
+ jsws = 6.0e-10
+ ijthsfwd = 0.1
+ ijthsrev = 0.1
+ bvs = 11.7
+ xjbvs = 1.0
+ pbs = 0.729
+ cjs = 0.00154845795
+ mjs = 0.44
+ pbsws = 0.2
+ cjsws = 4.24559793e-11
+ mjsws = 0.0009
+ pbswgs = 0.95578
+ cjswgs = 2.75331171e-10
+ mjswgs = 0.8
* Temperature Dependence Parameters
+ tnom = 30.0
+ kt1 = -0.31303
+ kt2 = -0.045313337
+ at = 140000.0
+ ute = -1.8134
+ ua1 = 3.7602e-10
+ ub1 = -6.3962e-19
+ uc1 = 1.5829713e-11
+ kt1l = 0.0
+ prt = 0.0
+ tvoff = 0.0
+ njs = 1.2928
+ tpb = 0.0012287
+ tcj = 0.000792
+ tpbsw = 0.0
+ tcjsw = 1.0e-5
+ tpbswg = 0.0
+ tcjswg = 0.0
+ xtis = 2.0
+ tvfbsdoff = 0.0
* DW AND DL Parameters
+ ll = 0.0
+ wl = 0.0
+ lln = 1.0
+ wln = 1.0
+ lw = 0.0
+ ww = 0.0
+ lwn = 1.0
+ wwn = 1.0
+ lwl = 0.0
+ wwl = 0.0
+ llc = 0.0
+ wlc = 0.0
+ lwc = 0.0
+ wwc = 0.0
+ lwlc = 0.0
+ wwlc = 0.0
* Stress Parameters
+ saref = 3.0e-6
+ sbref = 3.0e-6
+ kvth0 = 9.8e-9
+ lkvth0 = 0.0
+ wkvth0 = 2.0e-7
+ pkvth0 = 0.0
+ llodvth = 0.0
+ wlodvth = 1.0
+ wlod = 0.0
+ stk2 = 0.0
+ lodk2 = 1.0
+ lodeta0 = 1.0
+ ku0 = -2.7e-8
+ lku0 = 0.0
+ wku0 = 0.0
+ pku0 = 0.0
+ tku0 = 0.0
+ llodku0 = 0.0
+ wlodku0 = 1.0
+ kvsat = 0.2
+ steta0 = 0.0
* Well Proximity Effect Parameters
.model sky130_fd_pr__nfet_01v8__model.2 nmos
* Model Flag Parameters
+ lmin = 4.0e-06 lmax = 8.0e-06 wmin = 7.0e-06 wmax = 0.0001
+ level = 54.0
+ version = 4.5
+ binunit = 2.0
+ mobmod = 0.0
+ capmod = 2.0
+ igcmod = 0.0
+ igbmod = 0.0
+ geomod = 0.0
+ diomod = 1.0
+ rdsmod = 0.0
+ rbodymod = 1.0
+ rgatemod = 0.0
+ permod = 1.0
+ acnqsmod = 0.0
+ trnqsmod = 0.0
+ fnoimod = 1.0
+ tnoimod = 1.0
+ tempmod = 0.0
* Process Parameters
+ toxe = {4.299402e-09+sky130_fd_pr__nfet_01v8__toxe_slope_spectre*(4.148e-09*1.0365*(sky130_fd_pr__nfet_01v8__toxe_slope/sqrt(l*w*mult)))}
+ toxm = 4.148e-9
+ dtox = 0.0
+ epsrox = 3.9
+ xj = 1.5e-7
+ ngate = 1.0e+23
+ ndep = 1.7e+17
+ nsd = 1.0e+20
+ rsh = 1.0
+ rshg = 0.1
* Basic Model Parameters
+ wint = 4.4379e-8
+ lint = -1.955e-10
+ vth0 = {5.169550527e-01+sky130_fd_pr__nfet_01v8__vth0_slope_spectre*(sky130_fd_pr__nfet_01v8__vth0_slope1/sqrt(l*w*mult))} lvth0 = -4.439838262e-09 wvth0 = -5.544600946e-08 pvth0 = 4.435897551e-13
+ k1 = 5.415455151e-01 lk1 = -5.439186877e-09 wk1 = -6.792616965e-08 pk1 = 5.434359163e-13
+ k2 = -2.702810631e-02 lk2 = 3.342685843e-09 wk2 = 4.174444651e-08 pk2 = -3.339718941e-13
+ k3 = 2.0
+ k3b = 0.54
+ w0 = 0.0
+ dvt0 = 0.0
+ dvt1 = 0.53
+ dvt2 = -0.032
+ dvt0w = -3.58
+ dvt1w = 1670600.0
+ dvt2w = 0.068
+ dsub = 0.56
+ minv = 0.0
+ voffl = 5.8197729e-9
+ lpe0 = 1.0325e-7
+ lpeb = -7.082e-8
+ vbm = -3.0
+ dvtp0 = 0.0
+ dvtp1 = 0.0
+ phin = 0.0
+ cdsc = 0.0
+ cdscb = 0.0
+ cdscd = 0.0054
+ cit = 0.0
+ voff = {-1.049995897e-01+sky130_fd_pr__nfet_01v8__voff_slope_spectre*(sky130_fd_pr__nfet_01v8__voff_slope/sqrt(l*w*mult))} lvoff = -2.152187947e-09 wvoff = -2.687715773e-08 pvoff = 2.150277708e-13
+ nfactor = 2.684598982e+00 lnfactor = -1.623265138e-08 wnfactor = -2.027181371e-07 pnfactor = 1.621824360e-12
+ eta0 = 0.08
+ etab = -0.07
+ u0 = 3.111987097e-02 lu0 = 3.098474224e-10 wu0 = 3.869465981e-09 pu0 = -3.095724081e-14
+ ua = -7.563085878e-10 lua = -3.345620801e-18 wua = -4.178109914e-17 pua = 3.342651295e-22
+ ub = 1.582782613e-18 lub = 4.086109167e-26 wub = 5.102853621e-25 pub = -4.082482418e-30
+ uc = 4.877028021e-11 luc = 3.773942794e-18 wuc = 4.713011049e-17 puc = -3.770593118e-22
+ ud = 0.0
+ up = 0.0
+ lp = 1.0
+ eu = 1.67
+ vtl = 0.0
+ xn = 3.0
+ vsat = 80000.0
+ a0 = 1.376602449e+00 la0 = 5.726320479e-08 wa0 = 7.151197875e-07 pa0 = -5.721237912e-12
+ ags = 3.702739278e-01 lags = -1.142398111e-08 wags = -1.426660449e-07 pags = 1.141384142e-12
+ a1 = 0.0
+ a2 = 0.42385546
+ b0 = 0.0
+ b1 = 1.950721142e-24 lb1 = 1.253031301e-30 wb1 = 1.564822438e-29 pb1 = -1.251919135e-34
+ keta = -8.288268593e-03 lketa = -4.050849232e-09 wketa = -5.058819974e-08 pketa = 4.047253779e-13
+ dwg = 0.0
+ dwb = 0.0
+ pclm = 6.798847130e-02 lpclm = -3.333960644e-07 wpclm = -4.163548365e-06 ppclm = 3.331001487e-11
+ pdiblc1 = 0.39
+ pdiblc2 = 3.074731630e-03 lpdiblc2 = -1.018393736e-11 wpdiblc2 = -1.271800128e-10 ppdiblc2 = 1.017489830e-15
+ pdiblcb = -0.025
+ drout = 0.56
+ pscbe1 = 7.580428532e+08 lpscbe1 = -2.695086297e+01 wpscbe1 = -3.365703242e+02 ppscbe1 = 2.692694192e-3
+ pscbe2 = 1.0e-12
+ pvag = 0.0
+ delta = 0.01
+ fprout = 0.0
+ pdits = 0.0
+ pditsl = 0.0
+ pditsd = 0.0
+ lambda = 0.0
+ lc = 5.0e-9
* Parameters FOR Asymmetric AND Bias-Dependent RDS Model
+ rdsw = 65.968
+ rsw = 0.0
+ rdw = 0.0
+ rdswmin = 0.0
+ rdwmin = 0.0
+ rswmin = 0.0
+ prwb = 0.0
+ prwg = 0.021507
+ wr = 1.0
* Impact Ionization Current Model Parameters
+ alpha0 = 3.0e-8
+ alpha1 = 0.85
+ beta0 = 13.86
* Gidl Induced Drain Leakage Model Parameters
+ agidl = 0.0
+ bgidl = 2300000000.0
+ cgidl = 0.5
+ egidl = 0.8
* Gate Dielectric Tunneling Current Model Parameters
+ toxref = 4.148e-9
+ dlcig = 0.0
+ aigbacc = 1.0
+ bigbacc = 0.0
+ cigbacc = 0.0
+ nigbacc = 0.0
+ aigbinv = 0.35
+ bigbinv = 0.03
+ cigbinv = 0.006
+ eigbinv = 1.1
+ nigbinv = 0.0
+ aigc = 0.43
+ bigc = 0.054
+ cigc = 0.075
+ aigsd = 0.43
+ bigsd = 0.054
+ cigsd = 0.075
+ nigc = 0.0
+ poxedge = 1.0
+ pigcd = 1.0
+ ntox = 1.0
+ vfbsdoff = 0.0
* Charge AND Capacitance Model Parameters
+ dlc = -6.13e-10
+ dwc = 2.252e-8
+ xpart = 0.0
+ cgso = 2.4892e-10
+ cgdo = 2.4892e-10
+ cgbo = 1.0e-13
+ cgdl = 0.0
+ cgsl = 0.0
+ clc = 1.0e-7
+ cle = 0.6
+ cf = 1.4067e-12
+ ckappas = 0.6
+ vfbcv = -1.0
+ acde = 0.4
+ moin = 6.9
+ noff = 3.4037
+ voffcv = -0.17287
* High-Speed/RF Model Parameters
+ xrcrg1 = 12.0
+ xrcrg2 = 1.0
+ rbpb = 50.0
+ rbpd = 50.0
+ rbps = 50.0
+ rbdb = 50.0
+ rbsb = 50.0
+ gbmin = 1.0e-12
* Flicker AND Thermal Noise Model Parameters
+ ef = 0.84
+ noia = 2.5e+42
+ noib = 0.0
+ noic = 0.0
+ em = 41000000.0
+ ntnoi = 1.0
+ lintnoi = -1.0e-7
+ af = 1.0
+ kf = 0.0
+ tnoia = 15000000.0
+ tnoib = 9900000.0
+ rnoia = 0.94
+ rnoib = 0.26
* Layout-Dependent Parasitics Model Parameters
+ xl = 0.0
+ xw = 0.0
+ dmcg = 0.0
+ dmdg = 0.0
+ dmcgt = 0.0
+ xgw = 0.0
+ xgl = 0.0
+ ngcon = 1.0
* Asymmetric Source/Drain Junction Diode Model Parameters
+ jss = 0.00275
+ jsws = 6.0e-10
+ ijthsfwd = 0.1
+ ijthsrev = 0.1
+ bvs = 11.7
+ xjbvs = 1.0
+ pbs = 0.729
+ cjs = 0.00154845795
+ mjs = 0.44
+ pbsws = 0.2
+ cjsws = 4.24559793e-11
+ mjsws = 0.0009
+ pbswgs = 0.95578
+ cjswgs = 2.75331171e-10
+ mjswgs = 0.8
* Temperature Dependence Parameters
+ tnom = 30.0
+ kt1 = -3.131868188e-01 lkt1 = 1.254611517e-09 wkt1 = 1.566795859e-08 pkt1 = -1.253497949e-13
+ kt2 = -4.539668283e-02 lkt2 = 6.667992640e-10 wkt2 = 8.327185837e-09 pkt2 = -6.662074263e-14
+ at = 140000.0
+ ute = -1.816358003e+00 lute = 2.366518406e-08 wute = 2.955377970e-07 pute = -2.364417931e-12
+ ua1 = 3.613815991e-10 lua1 = 1.171129310e-16 wua1 = 1.462540817e-15 pua1 = -1.170089839e-20
+ ub1 = -6.204561511e-19 lub1 = -1.533182842e-25 wub1 = -1.914683944e-24 pub1 = 1.531822019e-29
+ uc1 = 1.690943672e-11 luc1 = -8.638211971e-18 wuc1 = -1.078765384e-16 puc1 = 8.630544866e-22
+ kt1l = 0.0
+ prt = 0.0
+ tvoff = 0.0
+ njs = 1.2928
+ tpb = 0.0012287
+ tcj = 0.000792
+ tpbsw = 0.0
+ tcjsw = 1.0e-5
+ tpbswg = 0.0
+ tcjswg = 0.0
+ xtis = 2.0
+ tvfbsdoff = 0.0
* DW AND DL Parameters
+ ll = 0.0
+ wl = 0.0
+ lln = 1.0
+ wln = 1.0
+ lw = 0.0
+ ww = 0.0
+ lwn = 1.0
+ wwn = 1.0
+ lwl = 0.0
+ wwl = 0.0
+ llc = 0.0
+ wlc = 0.0
+ lwc = 0.0
+ wwc = 0.0
+ lwlc = 0.0
+ wwlc = 0.0
* Stress Parameters
+ saref = 3.0e-6
+ sbref = 3.0e-6
+ kvth0 = 9.8e-9
+ lkvth0 = 0.0
+ wkvth0 = 2.0e-7
+ pkvth0 = 0.0
+ llodvth = 0.0
+ wlodvth = 1.0
+ wlod = 0.0
+ stk2 = 0.0
+ lodk2 = 1.0
+ lodeta0 = 1.0
+ ku0 = -2.7e-8
+ lku0 = 0.0
+ wku0 = 0.0
+ pku0 = 0.0
+ tku0 = 0.0
+ llodku0 = 0.0
+ wlodku0 = 1.0
+ kvsat = 0.2
+ steta0 = 0.0
* Well Proximity Effect Parameters
.model sky130_fd_pr__nfet_01v8__model.3 nmos
* Model Flag Parameters
+ lmin = 2.0e-06 lmax = 4.0e-06 wmin = 7.0e-06 wmax = 0.0001
+ level = 54.0
+ version = 4.5
+ binunit = 2.0
+ mobmod = 0.0
+ capmod = 2.0
+ igcmod = 0.0
+ igbmod = 0.0
+ geomod = 0.0
+ diomod = 1.0
+ rdsmod = 0.0
+ rbodymod = 1.0
+ rgatemod = 0.0
+ permod = 1.0
+ acnqsmod = 0.0
+ trnqsmod = 0.0
+ fnoimod = 1.0
+ tnoimod = 1.0
+ tempmod = 0.0
* Process Parameters
+ toxe = {4.299402e-09+sky130_fd_pr__nfet_01v8__toxe_slope_spectre*(4.148e-09*1.0365*(sky130_fd_pr__nfet_01v8__toxe_slope/sqrt(l*w*mult)))}
+ toxm = 4.148e-9
+ dtox = 0.0
+ epsrox = 3.9
+ xj = 1.5e-7
+ ngate = 1.0e+23
+ ndep = 1.7e+17
+ nsd = 1.0e+20
+ rsh = 1.0
+ rshg = 0.1
* Basic Model Parameters
+ wint = 4.4379e-8
+ lint = -1.955e-10
+ vth0 = {5.082895647e-01+sky130_fd_pr__nfet_01v8__vth0_slope_spectre*(sky130_fd_pr__nfet_01v8__vth0_slope/sqrt(l*w*mult))} lvth0 = 3.022550162e-08 wvth0 = 6.416054992e-08 pvth0 = -3.488324862e-14
+ k1 = 5.303470136e-01 lk1 = 3.935919803e-08 wk1 = 1.368032768e-07 pk1 = -2.755619188e-13
+ k2 = -2.027781121e-02 lk2 = -2.366113392e-08 wk2 = -7.090368593e-08 pk2 = 1.166646810e-13
+ k3 = 2.0
+ k3b = 0.54
+ w0 = 0.0
+ dvt0 = 0.0
+ dvt1 = 0.53
+ dvt2 = -0.032
+ dvt0w = -3.58
+ dvt1w = 1670600.0
+ dvt2w = 0.068
+ dsub = 5.377013124e-01 ldsub = 8.920346908e-08 wdsub = 2.227889570e-06 pdsub = -8.912429387e-12
+ minv = 0.0
+ voffl = 5.8197729e-9
+ lpe0 = 1.0325e-7
+ lpeb = -7.082e-8
+ vbm = -3.0
+ dvtp0 = 0.0
+ dvtp1 = 0.0
+ phin = 0.0
+ cdsc = 0.0
+ cdscb = 0.0
+ cdscd = 0.0054
+ cit = 0.0
+ voff = {-1.094468316e-01+sky130_fd_pr__nfet_01v8__voff_slope_spectre*(sky130_fd_pr__nfet_01v8__voff_slope/sqrt(l*w*mult))} lvoff = 1.563851864e-08 wvoff = 5.574887074e-08 pvoff = -1.155086498e-13
+ nfactor = 2.656480338e+00 lnfactor = 9.625292024e-08 wnfactor = -1.214596091e-07 pnfactor = 1.296758476e-12
+ eta0 = 7.409084779e-02 leta0 = 2.363891931e-08 weta0 = 5.903907362e-07 peta0 = -2.361793787e-12
+ etab = -6.483418875e-02 letab = -2.066526485e-08 wetab = -5.161226184e-07 petab = 2.064692278e-12
+ u0 = 3.163793223e-02 lu0 = -1.762600218e-09 wu0 = 4.183247760e-09 pu0 = -3.221249061e-14
+ ua = -7.759969872e-10 lua = 7.541567464e-17 wua = 1.363035837e-15 pua = -5.285551897e-21
+ ub = 1.676569356e-18 lub = -3.343225490e-25 wub = -1.992821733e-24 pub = 5.930924676e-30
+ uc = 5.886902198e-11 luc = -3.662497289e-17 wuc = -3.275870957e-16 puc = 1.121956027e-21
+ ud = 0.0
+ up = 0.0
+ lp = 1.0
+ eu = 1.67
+ vtl = 0.0
+ xn = 3.0
+ vsat = 80000.0
+ a0 = 1.496166100e+00 la0 = -4.210381484e-07 wa0 = -1.606799823e-06 pa0 = 3.567348402e-12
+ ags = 3.566728824e-01 lags = 4.298551859e-08 wags = -7.037186914e-07 pags = 3.385814099e-12
+ a1 = 0.0
+ a2 = 0.42385546
+ b0 = 0.0
+ b1 = 4.528339301e-24 lb1 = -9.058449182e-30 wb1 = -3.129644877e-29 pb1 = 6.260513444e-35
+ keta = -1.648344570e-02 lketa = 2.873306350e-08 wketa = 8.740373469e-08 pketa = -1.472963146e-13
+ dwg = 0.0
+ dwb = 0.0
+ pclm = -6.199141083e-01 lpclm = 2.418483224e-06 wpclm = 8.534067672e-06 ppclm = -1.748541405e-11
+ pdiblc1 = 0.39
+ pdiblc2 = 3.181769776e-03 lpdiblc2 = -4.383783715e-10 wpdiblc2 = -1.253303843e-08 ppdiblc2 = 5.064577420e-14
+ pdiblcb = -0.025
+ drout = 0.56
+ pscbe1 = 7.026020723e+08 lpscbe1 = 1.948339379e+02 wpscbe1 = 6.731406483e+02 ppscbe1 = -1.346544495e-3
+ pscbe2 = 1.0e-12
+ pvag = 0.0
+ delta = 0.01
+ fprout = 0.0
+ pdits = 0.0
+ pditsl = 0.0
+ pditsd = 0.0
+ lambda = 0.0
+ lc = 5.0e-9
* Parameters FOR Asymmetric AND Bias-Dependent RDS Model
+ rdsw = 65.968
+ rsw = 0.0
+ rdw = 0.0
+ rdswmin = 0.0
+ rdwmin = 0.0
+ rswmin = 0.0
+ prwb = 0.0
+ prwg = 0.021507
+ wr = 1.0
* Impact Ionization Current Model Parameters
+ alpha0 = 3.0e-8
+ alpha1 = 0.85
+ beta0 = 13.86
* Gidl Induced Drain Leakage Model Parameters
+ agidl = 0.0
+ bgidl = 2300000000.0
+ cgidl = 0.5
+ egidl = 0.8
* Gate Dielectric Tunneling Current Model Parameters
+ toxref = 4.148e-9
+ dlcig = 0.0
+ aigbacc = 1.0
+ bigbacc = 0.0
+ cigbacc = 0.0
+ nigbacc = 0.0
+ aigbinv = 0.35
+ bigbinv = 0.03
+ cigbinv = 0.006
+ eigbinv = 1.1
+ nigbinv = 0.0
+ aigc = 0.43
+ bigc = 0.054
+ cigc = 0.075
+ aigsd = 0.43
+ bigsd = 0.054
+ cigsd = 0.075
+ nigc = 0.0
+ poxedge = 1.0
+ pigcd = 1.0
+ ntox = 1.0
+ vfbsdoff = 0.0
* Charge AND Capacitance Model Parameters
+ dlc = -6.13e-10
+ dwc = 2.252e-8
+ xpart = 0.0
+ cgso = 2.4892e-10
+ cgdo = 2.4892e-10
+ cgbo = 1.0e-13
+ cgdl = 0.0
+ cgsl = 0.0
+ clc = 1.0e-7
+ cle = 0.6
+ cf = 1.4067e-12
+ ckappas = 0.6
+ vfbcv = -1.0
+ acde = 0.4
+ moin = 6.9
+ noff = 3.4037
+ voffcv = -0.17287
* High-Speed/RF Model Parameters
+ xrcrg1 = 12.0
+ xrcrg2 = 1.0
+ rbpb = 50.0
+ rbpd = 50.0
+ rbps = 50.0
+ rbdb = 50.0
+ rbsb = 50.0
+ gbmin = 1.0e-12
* Flicker AND Thermal Noise Model Parameters
+ ef = 0.84
+ noia = 2.5e+42
+ noib = 0.0
+ noic = 0.0
+ em = 41000000.0
+ ntnoi = 1.0
+ lintnoi = -1.0e-7
+ af = 1.0
+ kf = 0.0
+ tnoia = 15000000.0
+ tnoib = 9900000.0
+ rnoia = 0.94
+ rnoib = 0.26
* Layout-Dependent Parasitics Model Parameters
+ xl = 0.0
+ xw = 0.0
+ dmcg = 0.0
+ dmdg = 0.0
+ dmcgt = 0.0
+ xgw = 0.0
+ xgl = 0.0
+ ngcon = 1.0
* Asymmetric Source/Drain Junction Diode Model Parameters
+ jss = 0.00275
+ jsws = 6.0e-10
+ ijthsfwd = 0.1
+ ijthsrev = 0.1
+ bvs = 11.7
+ xjbvs = 1.0
+ pbs = 0.729
+ cjs = 0.00154845795
+ mjs = 0.44
+ pbsws = 0.2
+ cjsws = 4.24559793e-11
+ mjsws = 0.0009
+ pbswgs = 0.95578
+ cjswgs = 2.75331171e-10
+ mjswgs = 0.8
* Temperature Dependence Parameters
+ tnom = 30.0
+ kt1 = -3.112630179e-01 lkt1 = -6.441344035e-09 wkt1 = 3.431256217e-08 pkt1 = -1.999354992e-13
+ kt2 = -4.402603391e-02 lkt2 = -4.816332340e-09 wkt2 = -1.655168082e-08 pkt2 = 3.290445163e-14
+ at = 1.381373163e+05 lat = 7.451463117e-03 wat = 1.861030421e-01 pat = -7.444849348e-7
+ ute = -1.757396517e+00 lute = -2.122038146e-07 wute = -1.618132686e-06 pute = 5.291012246e-12
+ ua1 = 6.250607809e-10 lua1 = -9.377068951e-16 wua1 = -5.199608359e-15 pua1 = 1.495030322e-20
+ ub1 = -9.494904445e-19 lub1 = 1.162947542e-24 wub1 = 5.192390727e-24 pub1 = -1.311285736e-29
+ uc1 = -4.084632707e-13 luc1 = 6.064015931e-17 wuc1 = 1.706114446e-16 puc1 = -2.510063339e-22
+ kt1l = 0.0
+ prt = 0.0
+ tvoff = 0.0
+ njs = 1.2928
+ tpb = 0.0012287
+ tcj = 0.000792
+ tpbsw = 0.0
+ tcjsw = 1.0e-5
+ tpbswg = 0.0
+ tcjswg = 0.0
+ xtis = 2.0
+ tvfbsdoff = 0.0
* DW AND DL Parameters
+ ll = 0.0
+ wl = 0.0
+ lln = 1.0
+ wln = 1.0
+ lw = 0.0
+ ww = 0.0
+ lwn = 1.0
+ wwn = 1.0
+ lwl = 0.0
+ wwl = 0.0
+ llc = 0.0
+ wlc = 0.0
+ lwc = 0.0
+ wwc = 0.0
+ lwlc = 0.0
+ wwlc = 0.0
* Stress Parameters
+ saref = 3.0e-6
+ sbref = 3.0e-6
+ kvth0 = 9.8e-9
+ lkvth0 = 0.0
+ wkvth0 = 2.0e-7
+ pkvth0 = 0.0
+ llodvth = 0.0
+ wlodvth = 1.0
+ wlod = 0.0
+ stk2 = 0.0
+ lodk2 = 1.0
+ lodeta0 = 1.0
+ ku0 = -2.7e-8
+ lku0 = 0.0
+ wku0 = 0.0
+ pku0 = 0.0
+ tku0 = 0.0
+ llodku0 = 0.0
+ wlodku0 = 1.0
+ kvsat = 0.2
+ steta0 = 0.0
* Well Proximity Effect Parameters
.model sky130_fd_pr__nfet_01v8__model.4 nmos
* Model Flag Parameters
+ lmin = 1.0e-06 lmax = 2.0e-06 wmin = 7.0e-06 wmax = 0.0001
+ level = 54.0
+ version = 4.5
+ binunit = 2.0
+ mobmod = 0.0
+ capmod = 2.0
+ igcmod = 0.0
+ igbmod = 0.0
+ geomod = 0.0
+ diomod = 1.0
+ rdsmod = 0.0
+ rbodymod = 1.0
+ rgatemod = 0.0
+ permod = 1.0
+ acnqsmod = 0.0
+ trnqsmod = 0.0
+ fnoimod = 1.0
+ tnoimod = 1.0
+ tempmod = 0.0
* Process Parameters
+ toxe = {4.299402e-09+sky130_fd_pr__nfet_01v8__toxe_slope_spectre*(4.148e-09*1.0365*(sky130_fd_pr__nfet_01v8__toxe_slope/sqrt(l*w*mult)))}
+ toxm = 4.148e-9
+ dtox = 0.0
+ epsrox = 3.9
+ xj = 1.5e-7
+ ngate = 1.0e+23
+ ndep = 1.7e+17
+ nsd = 1.0e+20
+ rsh = 1.0
+ rshg = 0.1
* Basic Model Parameters
+ wint = 4.4379e-8
+ lint = -1.955e-10
+ vth0 = {5.252641416e-01+sky130_fd_pr__nfet_01v8__vth0_slope_spectre*(sky130_fd_pr__nfet_01v8__vth0_slope/sqrt(l*w*mult))} lvth0 = -3.730289106e-09 wvth0 = -1.395901499e-07 pvth0 = 3.726978176e-13
+ k1 = 5.525319085e-01 lk1 = -5.019266071e-09 wk1 = -2.516422950e-07 pk1 = 5.014811071e-13
+ k2 = -3.310977702e-02 lk2 = 2.007814991e-09 wk2 = 8.769929244e-08 pk2 = -2.006032895e-13
+ k3 = 2.0
+ k3b = 0.54
+ w0 = 0.0
+ dvt0 = 0.0
+ dvt1 = 0.53
+ dvt2 = -0.032
+ dvt0w = -3.58
+ dvt1w = 1670600.0
+ dvt2w = 0.068
+ dsub = 5.822943290e-01 wdsub = -2.227454103e-6
+ minv = 0.0
+ voffl = 5.8197729e-9
+ lpe0 = 1.0325e-7
+ lpeb = -7.082e-8
+ vbm = -3.0
+ dvtp0 = 0.0
+ dvtp1 = 0.0
+ phin = 0.0
+ cdsc = 0.0
+ cdscb = 0.0
+ cdscd = 0.0054
+ cit = 0.0
+ voff = {-1.030206999e-01+sky130_fd_pr__nfet_01v8__voff_slope_spectre*(sky130_fd_pr__nfet_01v8__voff_slope/sqrt(l*w*mult))} lvoff = 2.783742727e-09 wvoff = 1.370422496e-07 pvoff = -2.781271933e-13
+ nfactor = 2.696066082e+00 lnfactor = 1.706595406e-08 wnfactor = 1.379166589e-06 pnfactor = -1.705080666e-12
+ eta0 = 8.605900740e-02 leta0 = -3.020794611e-10 weta0 = -6.053629548e-07 peta0 = 3.018113414e-14
+ etab = -7.515081076e-02 letab = -2.798703115e-11 wetab = 5.146238999e-07 petab = 2.796219042e-15
+ u0 = 3.048700444e-02 lu0 = 5.397053895e-10 wu0 = 1.503619859e-08 pu0 = -5.392263578e-14
+ ua = -7.768031703e-10 lua = 7.702835605e-17 wua = 2.568023674e-15 pua = -7.695998722e-21
+ ub = 1.548052532e-18 lub = -7.723865094e-26 wub = -2.885689612e-24 pub = 7.717009546e-30
+ uc = 3.956086411e-11 luc = 1.998892326e-18 wuc = 3.331176577e-16 puc = -1.997118149e-22
+ ud = 0.0
+ up = 0.0
+ lp = 1.0
+ eu = 1.67
+ vtl = 0.0
+ xn = 3.0
+ vsat = 8.150917279e+04 lvsat = -3.018935661e-03 wvsat = -1.507833276e-01 pvsat = 3.016256114e-7
+ a0 = 1.273571673e+00 la0 = 2.423774059e-08 wa0 = 1.387100453e-06 pa0 = -2.421622766e-12
+ ags = 4.017765750e-01 lags = -4.723950215e-08 wags = -1.370559940e-06 pags = 4.719757332e-12
+ a1 = 0.0
+ a2 = 0.42385546
+ b0 = 0.0
+ b1 = 0.0
+ keta = -6.947922130e-03 lketa = 9.658287975e-09 wketa = 4.961614388e-07 pketa = -9.649715472e-13
+ dwg = 0.0
+ dwb = 0.0
+ pclm = 5.766408394e-01 lpclm = 2.490547562e-08 wpclm = 1.036994827e-06 ppclm = -2.488337002e-12
+ pdiblc1 = 4.135789662e-01 lpdiblc1 = -4.716715180e-08 wpdiblc1 = -2.355803799e-06 ppdiblc1 = 4.712528718e-12
+ pdiblc2 = 2.903068620e-03 lpdiblc2 = 1.191329119e-10 wpdiblc2 = 1.873509434e-08 ppdiblc2 = -1.190271719e-14
+ pdiblcb = -2.315565645e-02 lpdiblcb = -3.689408231e-09 wpdiblcb = -1.842706544e-07 ppdiblcb = 3.686133586e-13
+ drout = 5.376969539e-01 ldrout = 4.461481272e-08 wdrout = 2.228325038e-06 pdrout = -4.457521351e-12
+ pscbe1 = 7.599344035e+08 lpscbe1 = 8.014685859e+01 wpscbe1 = 4.003003505e+03 ppscbe1 = -8.007572184e-3
+ pscbe2 = 1.0e-12
+ pvag = 0.0
+ delta = 0.01
+ fprout = 0.0
+ pdits = 0.0
+ pditsl = 0.0
+ pditsd = 0.0
+ lambda = 0.0
+ lc = 5.0e-9
* Parameters FOR Asymmetric AND Bias-Dependent RDS Model
+ rdsw = 65.968
+ rsw = 0.0
+ rdw = 0.0
+ rdswmin = 0.0
+ rdwmin = 0.0
+ rswmin = 0.0
+ prwb = 0.0
+ prwg = 0.021507
+ wr = 1.0
* Impact Ionization Current Model Parameters
+ alpha0 = 2.240365012e-07 lalpha0 = -3.881488707e-13 walpha0 = -1.938642783e-11 palpha0 = 3.878043575e-17
+ alpha1 = 8.525276786e-01 lalpha1 = -5.056345442e-09 walpha1 = -2.525435043e-07 palpha1 = 5.051857531e-13
+ beta0 = 1.406608015e+01 lbeta0 = -4.122408695e-07 wbeta0 = -2.058972335e-05 pbeta0 = 4.118749728e-11
* Gidl Induced Drain Leakage Model Parameters
+ agidl = 0.0
+ bgidl = 2300000000.0
+ cgidl = 0.5
+ egidl = 0.8
* Gate Dielectric Tunneling Current Model Parameters
+ toxref = 4.148e-9
+ dlcig = 0.0
+ aigbacc = 1.0
+ bigbacc = 0.0
+ cigbacc = 0.0
+ nigbacc = 0.0
+ aigbinv = 0.35
+ bigbinv = 0.03
+ cigbinv = 0.006
+ eigbinv = 1.1
+ nigbinv = 0.0
+ aigc = 0.43
+ bigc = 0.054
+ cigc = 0.075
+ aigsd = 0.43
+ bigsd = 0.054
+ cigsd = 0.075
+ nigc = 0.0
+ poxedge = 1.0
+ pigcd = 1.0
+ ntox = 1.0
+ vfbsdoff = 0.0
* Charge AND Capacitance Model Parameters
+ dlc = -6.13e-10
+ dwc = 2.252e-8
+ xpart = 0.0
+ cgso = 2.4892e-10
+ cgdo = 2.4892e-10
+ cgbo = 1.0e-13
+ cgdl = 0.0
+ cgsl = 0.0
+ clc = 1.0e-7
+ cle = 0.6
+ cf = 1.4067e-12
+ ckappas = 0.6
+ vfbcv = -1.0
+ acde = 0.4
+ moin = 6.9
+ noff = 3.4037
+ voffcv = -0.17287
* High-Speed/RF Model Parameters
+ xrcrg1 = 12.0
+ xrcrg2 = 1.0
+ rbpb = 50.0
+ rbpd = 50.0
+ rbps = 50.0
+ rbdb = 50.0
+ rbsb = 50.0
+ gbmin = 1.0e-12
* Flicker AND Thermal Noise Model Parameters
+ ef = 0.84
+ noia = 2.5e+42
+ noib = 0.0
+ noic = 0.0
+ em = 41000000.0
+ ntnoi = 1.0
+ lintnoi = -1.0e-7