* Copyright 2020 The SkyWater PDK Authors
*
* Licensed under the Apache License, Version 2.0 (the "License");
* you may not use this file except in compliance with the License.
* You may obtain a copy of the License at
*
*     https://www.apache.org/licenses/LICENSE-2.0
*
* Unless required by applicable law or agreed to in writing, software
* distributed under the License is distributed on an "AS IS" BASIS,
* WITHOUT WARRANTIES OR CONDITIONS OF ANY KIND, either express or implied.
* See the License for the specific language governing permissions and
* limitations under the License.

* SKY130 Spice File.
.param sky130_fd_pr__nfet_01v8__toxe_slope_spectre = 0.0
.param sky130_fd_pr__nfet_01v8__vth0_slope_spectre = 0.0
.param sky130_fd_pr__nfet_01v8__voff_slope_spectre = 0.0
* statistics {
*   process {
*   }
*   mismatch {
*     vary sky130_fd_pr__nfet_01v8__toxe_slope_spectre dist=gauss std = 1.0
*     vary sky130_fd_pr__nfet_01v8__vth0_slope_spectre dist=gauss std = 1.0
*     vary sky130_fd_pr__nfet_01v8__voff_slope_spectre dist=gauss std = 1.0
*   }
* }
.subckt  sky130_fd_pr__nfet_01v8 d g s b
+ 
.param  l = 1 w = 1 ad = 0 as = 0 pd = 0 ps = 0 nrd = 0 nrs = 0 sa = 0 sb = 0 sd = 0 mult = 1 nf = 1.0
msky130_fd_pr__nfet_01v8 d g s b sky130_fd_pr__nfet_01v8__model l = {l} w = {w} ad = {ad} as = {as} pd = {pd} ps = {ps} nrd = {nrd} nrs = {nrs} sa = {sa} sb = {sb} sd = {sd} nf = {nf}
.model sky130_fd_pr__nfet_01v8__model.0 nmos
* Model Flag Parameters
+ lmin = 2.0e-05 lmax = 0.0001 wmin = 7.0e-06 wmax = 0.0001
+ level = 54.0
+ version = 4.5
+ binunit = 2.0
+ mobmod = 0.0
+ capmod = 2.0
+ igcmod = 0.0
+ igbmod = 0.0
+ geomod = 0.0
+ diomod = 1.0
+ rdsmod = 0.0
+ rbodymod = 1.0
+ rgatemod = 0.0
+ permod = 1.0
+ acnqsmod = 0.0
+ trnqsmod = 0.0
+ fnoimod = 1.0
+ tnoimod = 1.0
+ tempmod = 0.0
* Process Parameters
+ toxe = {3.932304e-09+sky130_fd_pr__nfet_01v8__toxe_slope_spectre*(4.148e-09*0.948*(sky130_fd_pr__nfet_01v8__toxe_slope/sqrt(l*w*mult)))}
+ toxm = 4.148e-9
+ dtox = 0.0
+ epsrox = 3.9
+ xj = 1.5e-7
+ ngate = 1.0e+23
+ ndep = 1.7e+17
+ nsd = 1.0e+20
+ rsh = 1.0
+ rshg = 0.1
* Basic Model Parameters
+ wint = -1.0316e-8
+ lint = 2.9257e-8
+ vth0 = {0.540388+sky130_fd_pr__nfet_01v8__vth0_slope_spectre*(sky130_fd_pr__nfet_01v8__vth0_slope/sqrt(l*w*mult))}
+ k1 = 0.54086565
+ k2 = -0.031308211
+ k3 = 2.0
+ k3b = 0.54
+ w0 = 0.0
+ dvt0 = 0.0
+ dvt1 = 0.53
+ dvt2 = -0.032
+ dvt0w = -3.58
+ dvt1w = 1670600.0
+ dvt2w = 0.068
+ dsub = 0.56
+ minv = 0.0
+ voffl = 5.8197729e-9
+ lpe0 = 1.0325e-7
+ lpeb = -7.082e-8
+ vbm = -3.0
+ dvtp0 = 0.0
+ dvtp1 = 0.0
+ phin = 0.0
+ cdsc = 0.0
+ cdscb = 0.0
+ cdscd = 0.0054
+ cit = 0.0
+ voff = {-0.2609486+sky130_fd_pr__nfet_01v8__voff_slope_spectre*(sky130_fd_pr__nfet_01v8__voff_slope/sqrt(l*w*mult))}
+ nfactor = 2.68119
+ eta0 = 0.08
+ etab = -0.07
+ u0 = 0.0325965
+ ua = -7.5800507e-10
+ ub = 1.7355048e-18
+ uc = 4.9242e-11
+ ud = 0.0
+ up = 0.0
+ lp = 1.0
+ eu = 1.67
+ vtl = 0.0
+ xn = 3.0
+ vsat = 80000.0
+ a0 = 1.278231
+ ags = 0.455362
+ a1 = 0.0
+ a2 = 0.42385546
+ b0 = 0.0
+ b1 = 2.1073424e-24
+ keta = -0.0087946
+ dwg = 0.0
+ dwb = 0.0
+ pclm = 0.026316
+ pdiblc1 = 0.39
+ pdiblc2 = 0.0030734587
+ pdiblcb = -0.025
+ drout = 0.56
+ pscbe1 = 754674160.0
+ pscbe2 = 1.0e-12
+ pvag = 0.0
+ delta = 0.01
+ fprout = 0.0
+ pdits = 0.0
+ pditsl = 0.0
+ pditsd = 0.0
+ lambda = 0.0
+ lc = 5.0e-9
* Parameters FOR Asymmetric AND Bias-Dependent RDS Model
+ rdsw = 65.968
+ rsw = 0.0
+ rdw = 0.0
+ rdswmin = 0.0
+ rdwmin = 0.0
+ rswmin = 0.0
+ prwb = 0.0
+ prwg = 0.021507
+ wr = 1.0
* Impact Ionization Current Model Parameters
+ alpha0 = 3.0e-8
+ alpha1 = 0.85
+ beta0 = 13.86
* Gidl Induced Drain Leakage Model Parameters
+ agidl = 0.0
+ bgidl = 2300000000.0
+ cgidl = 0.5
+ egidl = 0.8
* Gate Dielectric Tunneling Current Model Parameters
+ toxref = 4.148e-9
+ dlcig = 0.0
+ aigbacc = 1.0
+ bigbacc = 0.0
+ cigbacc = 0.0
+ nigbacc = 0.0
+ aigbinv = 0.35
+ bigbinv = 0.03
+ cigbinv = 0.006
+ eigbinv = 1.1
+ nigbinv = 0.0
+ aigc = 0.43
+ bigc = 0.054
+ cigc = 0.075
+ aigsd = 0.43
+ bigsd = 0.054
+ cigsd = 0.075
+ nigc = 0.0
+ poxedge = 1.0
+ pigcd = 1.0
+ ntox = 1.0
+ vfbsdoff = 0.0
* Charge AND Capacitance Model Parameters
+ dlc = 2.3267e-8
+ dwc = -3.2175e-8
+ xpart = 0.0
+ cgso = 2.4083264e-10
+ cgdo = 2.4083264e-10
+ cgbo = 1.0e-13
+ cgdl = 0.0
+ cgsl = 0.0
+ clc = 1.0e-7
+ cle = 0.6
+ cf = 1.4067e-12
+ ckappas = 0.6
+ vfbcv = -1.0
+ acde = 0.4
+ moin = 6.9
+ noff = 3.4037
+ voffcv = -0.17287
* High-Speed/RF Model Parameters
+ xrcrg1 = 12.0
+ xrcrg2 = 1.0
+ rbpb = 50.0
+ rbpd = 50.0
+ rbps = 50.0
+ rbdb = 50.0
+ rbsb = 50.0
+ gbmin = 1.0e-12
* Flicker AND Thermal Noise Model Parameters
+ ef = 0.84
+ noia = 2.5e+42
+ noib = 0.0
+ noic = 0.0
+ em = 41000000.0
+ ntnoi = 1.0
+ lintnoi = -1.0e-7
+ af = 1.0
+ kf = 0.0
+ tnoia = 15000000.0
+ tnoib = 9900000.0
+ rnoia = 0.94
+ rnoib = 0.26
* Layout-Dependent Parasitics Model Parameters
+ xl = 0.0
+ xw = 0.0
+ dmcg = 0.0
+ dmdg = 0.0
+ dmcgt = 0.0
+ xgw = 0.0
+ xgl = 0.0
+ ngcon = 1.0
* Asymmetric Source/Drain Junction Diode Model Parameters
+ jss = 0.00275
+ jsws = 6.0e-10
+ ijthsfwd = 0.1
+ ijthsrev = 0.1
+ bvs = 11.7
+ xjbvs = 1.0
+ pbs = 0.729
+ cjs = 0.001041645846
+ mjs = 0.44
+ pbsws = 0.2
+ cjsws = 2.856175336e-11
+ mjsws = 0.0009
+ pbswgs = 0.95578
+ cjswgs = 1.852257592e-10
+ mjswgs = 0.8
* Temperature Dependence Parameters
+ tnom = 30.0
+ kt1 = -0.31303
+ kt2 = -0.045313337
+ at = 140000.0
+ ute = -1.8134
+ ua1 = 3.7602e-10
+ ub1 = -6.3962e-19
+ uc1 = 1.5829713e-11
+ kt1l = 0.0
+ prt = 0.0
+ tvoff = 0.00096922
+ njs = 1.2928
+ tpb = 0.0012287
+ tcj = 0.000792
+ tpbsw = 0.0
+ tcjsw = 1.0e-5
+ tpbswg = 0.0
+ tcjswg = 0.0
+ xtis = 2.0
+ tvfbsdoff = 0.0
* DW AND DL Parameters
+ ll = 0.0
+ wl = 0.0
+ lln = 1.0
+ wln = 1.0
+ lw = 0.0
+ ww = 0.0
+ lwn = 1.0
+ wwn = 1.0
+ lwl = 0.0
+ wwl = 0.0
+ llc = 0.0
+ wlc = 0.0
+ lwc = 0.0
+ wwc = 0.0
+ lwlc = 0.0
+ wwlc = 0.0
* Stress Parameters
+ saref = 3.0e-6
+ sbref = 3.0e-6
+ kvth0 = 9.8e-9
+ lkvth0 = 0.0
+ wkvth0 = 2.0e-7
+ pkvth0 = 0.0
+ llodvth = 0.0
+ wlodvth = 1.0
+ wlod = 0.0
+ stk2 = 0.0
+ lodk2 = 1.0
+ lodeta0 = 1.0
+ ku0 = -2.7e-8
+ lku0 = 0.0
+ wku0 = 0.0
+ pku0 = 0.0
+ tku0 = 0.0
+ llodku0 = 0.0
+ wlodku0 = 1.0
+ kvsat = 0.2
+ steta0 = 0.0
* Well Proximity Effect Parameters
.model sky130_fd_pr__nfet_01v8__model.1 nmos
* Model Flag Parameters
+ lmin = 8.0e-06 lmax = 2.0e-05 wmin = 7.0e-06 wmax = 0.0001
+ level = 54.0
+ version = 4.5
+ binunit = 2.0
+ mobmod = 0.0
+ capmod = 2.0
+ igcmod = 0.0
+ igbmod = 0.0
+ geomod = 0.0
+ diomod = 1.0
+ rdsmod = 0.0
+ rbodymod = 1.0
+ rgatemod = 0.0
+ permod = 1.0
+ acnqsmod = 0.0
+ trnqsmod = 0.0
+ fnoimod = 1.0
+ tnoimod = 1.0
+ tempmod = 0.0
* Process Parameters
+ toxe = {3.932304e-09+sky130_fd_pr__nfet_01v8__toxe_slope_spectre*(4.148e-09*0.948*(sky130_fd_pr__nfet_01v8__toxe_slope/sqrt(l*w*mult)))}
+ toxm = 4.148e-9
+ dtox = 0.0
+ epsrox = 3.9
+ xj = 1.5e-7
+ ngate = 1.0e+23
+ ndep = 1.7e+17
+ nsd = 1.0e+20
+ rsh = 1.0
+ rshg = 0.1
* Basic Model Parameters
+ wint = -1.0316e-8
+ lint = 2.9257e-8
+ vth0 = {0.540388+sky130_fd_pr__nfet_01v8__vth0_slope_spectre*(sky130_fd_pr__nfet_01v8__vth0_slope/sqrt(l*w*mult))}
+ k1 = 0.54086565
+ k2 = -0.031308211
+ k3 = 2.0
+ k3b = 0.54
+ w0 = 0.0
+ dvt0 = 0.0
+ dvt1 = 0.53
+ dvt2 = -0.032
+ dvt0w = -3.58
+ dvt1w = 1670600.0
+ dvt2w = 0.068
+ dsub = 0.56
+ minv = 0.0
+ voffl = 5.8197729e-9
+ lpe0 = 1.0325e-7
+ lpeb = -7.082e-8
+ vbm = -3.0
+ dvtp0 = 0.0
+ dvtp1 = 0.0
+ phin = 0.0
+ cdsc = 0.0
+ cdscb = 0.0
+ cdscd = 0.0054
+ cit = 0.0
+ voff = {-0.2609486+sky130_fd_pr__nfet_01v8__voff_slope_spectre*(sky130_fd_pr__nfet_01v8__voff_slope/sqrt(l*w*mult))}
+ nfactor = 2.68119
+ eta0 = 0.08
+ etab = -0.07
+ u0 = 0.0325965
+ ua = -7.5800507e-10
+ ub = 1.7355048e-18
+ uc = 4.9242e-11
+ ud = 0.0
+ up = 0.0
+ lp = 1.0
+ eu = 1.67
+ vtl = 0.0
+ xn = 3.0
+ vsat = 80000.0
+ a0 = 1.278231
+ ags = 0.455362
+ a1 = 0.0
+ a2 = 0.42385546
+ b0 = 0.0
+ b1 = 2.1073424e-24
+ keta = -0.0087946
+ dwg = 0.0
+ dwb = 0.0
+ pclm = 0.026316
+ pdiblc1 = 0.39
+ pdiblc2 = 0.0030734587
+ pdiblcb = -0.025
+ drout = 0.56
+ pscbe1 = 754674160.0
+ pscbe2 = 1.0e-12
+ pvag = 0.0
+ delta = 0.01
+ fprout = 0.0
+ pdits = 0.0
+ pditsl = 0.0
+ pditsd = 0.0
+ lambda = 0.0
+ lc = 5.0e-9
* Parameters FOR Asymmetric AND Bias-Dependent RDS Model
+ rdsw = 65.968
+ rsw = 0.0
+ rdw = 0.0
+ rdswmin = 0.0
+ rdwmin = 0.0
+ rswmin = 0.0
+ prwb = 0.0
+ prwg = 0.021507
+ wr = 1.0
* Impact Ionization Current Model Parameters
+ alpha0 = 3.0e-8
+ alpha1 = 0.85
+ beta0 = 13.86
* Gidl Induced Drain Leakage Model Parameters
+ agidl = 0.0
+ bgidl = 2300000000.0
+ cgidl = 0.5
+ egidl = 0.8
* Gate Dielectric Tunneling Current Model Parameters
+ toxref = 4.148e-9
+ dlcig = 0.0
+ aigbacc = 1.0
+ bigbacc = 0.0
+ cigbacc = 0.0
+ nigbacc = 0.0
+ aigbinv = 0.35
+ bigbinv = 0.03
+ cigbinv = 0.006
+ eigbinv = 1.1
+ nigbinv = 0.0
+ aigc = 0.43
+ bigc = 0.054
+ cigc = 0.075
+ aigsd = 0.43
+ bigsd = 0.054
+ cigsd = 0.075
+ nigc = 0.0
+ poxedge = 1.0
+ pigcd = 1.0
+ ntox = 1.0
+ vfbsdoff = 0.0
* Charge AND Capacitance Model Parameters
+ dlc = 2.3267e-8
+ dwc = -3.2175e-8
+ xpart = 0.0
+ cgso = 2.4083264e-10
+ cgdo = 2.4083264e-10
+ cgbo = 1.0e-13
+ cgdl = 0.0
+ cgsl = 0.0
+ clc = 1.0e-7
+ cle = 0.6
+ cf = 1.4067e-12
+ ckappas = 0.6
+ vfbcv = -1.0
+ acde = 0.4
+ moin = 6.9
+ noff = 3.4037
+ voffcv = -0.17287
* High-Speed/RF Model Parameters
+ xrcrg1 = 12.0
+ xrcrg2 = 1.0
+ rbpb = 50.0
+ rbpd = 50.0
+ rbps = 50.0
+ rbdb = 50.0
+ rbsb = 50.0
+ gbmin = 1.0e-12
* Flicker AND Thermal Noise Model Parameters
+ ef = 0.84
+ noia = 2.5e+42
+ noib = 0.0
+ noic = 0.0
+ em = 41000000.0
+ ntnoi = 1.0
+ lintnoi = -1.0e-7
+ af = 1.0
+ kf = 0.0
+ tnoia = 15000000.0
+ tnoib = 9900000.0
+ rnoia = 0.94
+ rnoib = 0.26
* Layout-Dependent Parasitics Model Parameters
+ xl = 0.0
+ xw = 0.0
+ dmcg = 0.0
+ dmdg = 0.0
+ dmcgt = 0.0
+ xgw = 0.0
+ xgl = 0.0
+ ngcon = 1.0
* Asymmetric Source/Drain Junction Diode Model Parameters
+ jss = 0.00275
+ jsws = 6.0e-10
+ ijthsfwd = 0.1
+ ijthsrev = 0.1
+ bvs = 11.7
+ xjbvs = 1.0
+ pbs = 0.729
+ cjs = 0.001041645846
+ mjs = 0.44
+ pbsws = 0.2
+ cjsws = 2.856175336e-11
+ mjsws = 0.0009
+ pbswgs = 0.95578
+ cjswgs = 1.852257592e-10
+ mjswgs = 0.8
* Temperature Dependence Parameters
+ tnom = 30.0
+ kt1 = -0.31303
+ kt2 = -0.045313337
+ at = 140000.0
+ ute = -1.8134
+ ua1 = 3.7602e-10
+ ub1 = -6.3962e-19
+ uc1 = 1.5829713e-11
+ kt1l = 0.0
+ prt = 0.0
+ tvoff = 0.00096922
+ njs = 1.2928
+ tpb = 0.0012287
+ tcj = 0.000792
+ tpbsw = 0.0
+ tcjsw = 1.0e-5
+ tpbswg = 0.0
+ tcjswg = 0.0
+ xtis = 2.0
+ tvfbsdoff = 0.0
* DW AND DL Parameters
+ ll = 0.0
+ wl = 0.0
+ lln = 1.0
+ wln = 1.0
+ lw = 0.0
+ ww = 0.0
+ lwn = 1.0
+ wwn = 1.0
+ lwl = 0.0
+ wwl = 0.0
+ llc = 0.0
+ wlc = 0.0
+ lwc = 0.0
+ wwc = 0.0
+ lwlc = 0.0
+ wwlc = 0.0
* Stress Parameters
+ saref = 3.0e-6
+ sbref = 3.0e-6
+ kvth0 = 9.8e-9
+ lkvth0 = 0.0
+ wkvth0 = 2.0e-7
+ pkvth0 = 0.0
+ llodvth = 0.0
+ wlodvth = 1.0
+ wlod = 0.0
+ stk2 = 0.0
+ lodk2 = 1.0
+ lodeta0 = 1.0
+ ku0 = -2.7e-8
+ lku0 = 0.0
+ wku0 = 0.0
+ pku0 = 0.0
+ tku0 = 0.0
+ llodku0 = 0.0
+ wlodku0 = 1.0
+ kvsat = 0.2
+ steta0 = 0.0
* Well Proximity Effect Parameters
.model sky130_fd_pr__nfet_01v8__model.2 nmos
* Model Flag Parameters
+ lmin = 4.0e-06 lmax = 8.0e-06 wmin = 7.0e-06 wmax = 0.0001
+ level = 54.0
+ version = 4.5
+ binunit = 2.0
+ mobmod = 0.0
+ capmod = 2.0
+ igcmod = 0.0
+ igbmod = 0.0
+ geomod = 0.0
+ diomod = 1.0
+ rdsmod = 0.0
+ rbodymod = 1.0
+ rgatemod = 0.0
+ permod = 1.0
+ acnqsmod = 0.0
+ trnqsmod = 0.0
+ fnoimod = 1.0
+ tnoimod = 1.0
+ tempmod = 0.0
* Process Parameters
+ toxe = {3.932304e-09+sky130_fd_pr__nfet_01v8__toxe_slope_spectre*(4.148e-09*0.948*(sky130_fd_pr__nfet_01v8__toxe_slope/sqrt(l*w*mult)))}
+ toxm = 4.148e-9
+ dtox = 0.0
+ epsrox = 3.9
+ xj = 1.5e-7
+ ngate = 1.0e+23
+ ndep = 1.7e+17
+ nsd = 1.0e+20
+ rsh = 1.0
+ rshg = 0.1
* Basic Model Parameters
+ wint = -1.0316e-8
+ lint = 2.9257e-8
+ vth0 = {5.410417073e-01+sky130_fd_pr__nfet_01v8__vth0_slope_spectre*(sky130_fd_pr__nfet_01v8__vth0_slope1/sqrt(l*w*mult))} lvth0 = -5.191407026e-09 wvth0 = -6.538421294e-08 pvth0 = 5.192478117e-13
+ k1 = 5.415461066e-01 lk1 = -5.403836471e-09 wk1 = -6.805969803e-08 pk1 = 5.404951391e-13
+ k2 = -3.188143178e-02 lk2 = 4.552224783e-09 wk2 = 5.733390449e-08 pk2 = -4.553163998e-13
+ k3 = 2.0
+ k3b = 0.54
+ w0 = 0.0
+ dvt0 = 0.0
+ dvt1 = 0.53
+ dvt2 = -0.032
+ dvt0w = -3.58
+ dvt1w = 1670600.0
+ dvt2w = 0.068
+ dsub = 0.56
+ minv = 0.0
+ voffl = 5.8197729e-9
+ lpe0 = 1.0325e-7
+ lpeb = -7.082e-8
+ vbm = -3.0
+ dvtp0 = 0.0
+ dvtp1 = 0.0
+ phin = 0.0
+ cdsc = 0.0
+ cdscb = 0.0
+ cdscd = 0.0054
+ cit = 0.0
+ voff = {-2.611814635e-01+sky130_fd_pr__nfet_01v8__voff_slope_spectre*(sky130_fd_pr__nfet_01v8__voff_slope/sqrt(l*w*mult))} lvoff = 1.849282207e-09 wvoff = 2.329115422e-08 pvoff = -1.849663751e-13
+ nfactor = 2.681509861e+00 lnfactor = -2.540174125e-09 wnfactor = -3.199273050e-08 pnfactor = 2.540698214e-13
+ eta0 = 0.08
+ etab = -0.07
+ u0 = 3.259529717e-02 lu0 = 9.552236187e-12 wu0 = 1.203075470e-10 pu0 = -9.554207004e-16
+ ua = -7.576149024e-10 lua = -3.098510305e-18 wua = -3.902480707e-17 pua = 3.099149590e-22
+ ub = 1.736245703e-18 lub = -5.883870307e-27 wub = -7.410558008e-26 pub = 5.885084267e-31
+ uc = 4.876986983e-11 luc = 3.749415156e-18 wuc = 4.722275825e-17 puc = -3.750188736e-22
+ ud = 0.0
+ up = 0.0
+ lp = 1.0
+ eu = 1.67
+ vtl = 0.0
+ xn = 3.0
+ vsat = 80000.0
+ a0 = 1.270180686e+00 la0 = 6.393145682e-08 wa0 = 8.051975054e-07 pa0 = -6.394464716e-12
+ ags = 4.563758116e-01 lags = -8.051170500e-09 wags = -1.014020754e-07 pags = 8.052831618e-13
+ a1 = 0.0
+ a2 = 0.42385546
+ b0 = 0.0
+ b1 = 1.950584888e-24 lb1 = 1.244887590e-30 wb1 = 1.567898546e-29 pb1 = -1.245144435e-34
+ keta = -8.287828103e-03 lketa = -4.024521921e-09 wketa = -5.068764537e-08 pketa = 4.025352261e-13
+ dwg = 0.0
+ dwb = 0.0
+ pclm = 6.802472480e-02 lpclm = -3.312292541e-07 wpclm = -4.171733015e-06 ppclm = 3.312975933e-11
+ pdiblc1 = 0.39
+ pdiblc2 = 3.074732737e-03 lpdiblc2 = -1.011774984e-11 wpdiblc2 = -1.274300217e-10 ppdiblc2 = 1.011983733e-15
+ pdiblcb = -0.025
+ drout = 0.56
+ pscbe1 = 7.580457839e+08 lpscbe1 = -2.677570371e+01 wpscbe1 = -3.372319497e+02 ppscbe1 = 2.678122808e-3
+ pscbe2 = 1.0e-12
+ pvag = 0.0
+ delta = 0.01
+ fprout = 0.0
+ pdits = 0.0
+ pditsl = 0.0
+ pditsd = 0.0
+ lambda = 0.0
+ lc = 5.0e-9
* Parameters FOR Asymmetric AND Bias-Dependent RDS Model
+ rdsw = 65.968
+ rsw = 0.0
+ rdw = 0.0
+ rdswmin = 0.0
+ rdwmin = 0.0
+ rswmin = 0.0
+ prwb = 0.0
+ prwg = 0.021507
+ wr = 1.0
* Impact Ionization Current Model Parameters
+ alpha0 = 3.0e-8
+ alpha1 = 0.85
+ beta0 = 13.86
* Gidl Induced Drain Leakage Model Parameters
+ agidl = 0.0
+ bgidl = 2300000000.0
+ cgidl = 0.5
+ egidl = 0.8
* Gate Dielectric Tunneling Current Model Parameters
+ toxref = 4.148e-9
+ dlcig = 0.0
+ aigbacc = 1.0
+ bigbacc = 0.0
+ cigbacc = 0.0
+ nigbacc = 0.0
+ aigbinv = 0.35
+ bigbinv = 0.03
+ cigbinv = 0.006
+ eigbinv = 1.1
+ nigbinv = 0.0
+ aigc = 0.43
+ bigc = 0.054
+ cigc = 0.075
+ aigsd = 0.43
+ bigsd = 0.054
+ cigsd = 0.075
+ nigc = 0.0
+ poxedge = 1.0
+ pigcd = 1.0
+ ntox = 1.0
+ vfbsdoff = 0.0
* Charge AND Capacitance Model Parameters
+ dlc = 2.3267e-8
+ dwc = -3.2175e-8
+ xpart = 0.0
+ cgso = 2.4083264e-10
+ cgdo = 2.4083264e-10
+ cgbo = 1.0e-13
+ cgdl = 0.0
+ cgsl = 0.0
+ clc = 1.0e-7
+ cle = 0.6
+ cf = 1.4067e-12
+ ckappas = 0.6
+ vfbcv = -1.0
+ acde = 0.4
+ moin = 6.9
+ noff = 3.4037
+ voffcv = -0.17287
* High-Speed/RF Model Parameters
+ xrcrg1 = 12.0
+ xrcrg2 = 1.0
+ rbpb = 50.0
+ rbpd = 50.0
+ rbps = 50.0
+ rbdb = 50.0
+ rbsb = 50.0
+ gbmin = 1.0e-12
* Flicker AND Thermal Noise Model Parameters
+ ef = 0.84
+ noia = 2.5e+42
+ noib = 0.0
+ noic = 0.0
+ em = 41000000.0
+ ntnoi = 1.0
+ lintnoi = -1.0e-7
+ af = 1.0
+ kf = 0.0
+ tnoia = 15000000.0
+ tnoib = 9900000.0
+ rnoia = 0.94
+ rnoib = 0.26
* Layout-Dependent Parasitics Model Parameters
+ xl = 0.0
+ xw = 0.0
+ dmcg = 0.0
+ dmdg = 0.0
+ dmcgt = 0.0
+ xgw = 0.0
+ xgl = 0.0
+ ngcon = 1.0
* Asymmetric Source/Drain Junction Diode Model Parameters
+ jss = 0.00275
+ jsws = 6.0e-10
+ ijthsfwd = 0.1
+ ijthsrev = 0.1
+ bvs = 11.7
+ xjbvs = 1.0
+ pbs = 0.729
+ cjs = 0.001041645846
+ mjs = 0.44
+ pbsws = 0.2
+ cjsws = 2.856175336e-11
+ mjsws = 0.0009
+ pbswgs = 0.95578
+ cjswgs = 1.852257592e-10
+ mjswgs = 0.8
* Temperature Dependence Parameters
+ tnom = 30.0
+ kt1 = -3.131869552e-01 lkt1 = 1.246457536e-09 wkt1 = 1.569875846e-08 pkt1 = -1.246714705e-13
+ kt2 = -4.539675534e-02 lkt2 = 6.624655971e-10 wkt2 = 8.343555311e-09 pkt2 = -6.626022770e-14
+ at = 140000.0
+ ute = -1.816360577e+00 lute = 2.351137911e-08 wute = 2.961187614e-07 pute = -2.351622998e-12
+ ua1 = 3.613688642e-10 lua1 = 1.163517897e-16 wua1 = 1.465415860e-15 pua1 = -1.163757954e-20
+ ub1 = -6.204394793e-19 lub1 = -1.523218368e-25 wub1 = -1.918447805e-24 pub1 = 1.523532638e-29
+ uc1 = 1.691037604e-11 luc1 = -8.582070437e-18 wuc1 = -1.080886007e-16 puc1 = 8.583841090e-22
+ kt1l = 0.0
+ prt = 0.0
+ tvoff = 9.565096041e-04 ltvoff = 1.009394309e-10 wtvoff = 1.271301828e-09 ptvoff = -1.009602567e-14
+ njs = 1.2928
+ tpb = 0.0012287
+ tcj = 0.000792
+ tpbsw = 0.0
+ tcjsw = 1.0e-5
+ tpbswg = 0.0
+ tcjswg = 0.0
+ xtis = 2.0
+ tvfbsdoff = 0.0
* DW AND DL Parameters
+ ll = 0.0
+ wl = 0.0
+ lln = 1.0
+ wln = 1.0
+ lw = 0.0
+ ww = 0.0
+ lwn = 1.0
+ wwn = 1.0
+ lwl = 0.0
+ wwl = 0.0
+ llc = 0.0
+ wlc = 0.0
+ lwc = 0.0
+ wwc = 0.0
+ lwlc = 0.0
+ wwlc = 0.0
* Stress Parameters
+ saref = 3.0e-6
+ sbref = 3.0e-6
+ kvth0 = 9.8e-9
+ lkvth0 = 0.0
+ wkvth0 = 2.0e-7
+ pkvth0 = 0.0
+ llodvth = 0.0
+ wlodvth = 1.0
+ wlod = 0.0
+ stk2 = 0.0
+ lodk2 = 1.0
+ lodeta0 = 1.0
+ ku0 = -2.7e-8
+ lku0 = 0.0
+ wku0 = 0.0
+ pku0 = 0.0
+ tku0 = 0.0
+ llodku0 = 0.0
+ wlodku0 = 1.0
+ kvsat = 0.2
+ steta0 = 0.0
* Well Proximity Effect Parameters
.model sky130_fd_pr__nfet_01v8__model.3 nmos
* Model Flag Parameters
+ lmin = 2.0e-06 lmax = 4.0e-06 wmin = 7.0e-06 wmax = 0.0001
+ level = 54.0
+ version = 4.5
+ binunit = 2.0
+ mobmod = 0.0
+ capmod = 2.0
+ igcmod = 0.0
+ igbmod = 0.0
+ geomod = 0.0
+ diomod = 1.0
+ rdsmod = 0.0
+ rbodymod = 1.0
+ rgatemod = 0.0
+ permod = 1.0
+ acnqsmod = 0.0
+ trnqsmod = 0.0
+ fnoimod = 1.0
+ tnoimod = 1.0
+ tempmod = 0.0
* Process Parameters
+ toxe = {3.932304e-09+sky130_fd_pr__nfet_01v8__toxe_slope_spectre*(4.148e-09*0.948*(sky130_fd_pr__nfet_01v8__toxe_slope/sqrt(l*w*mult)))}
+ toxm = 4.148e-9
+ dtox = 0.0
+ epsrox = 3.9
+ xj = 1.5e-7
+ ngate = 1.0e+23
+ ndep = 1.7e+17
+ nsd = 1.0e+20
+ rsh = 1.0
+ rshg = 0.1
* Basic Model Parameters
+ wint = -1.0316e-8
+ lint = 2.9257e-8
+ vth0 = {5.312943148e-01+sky130_fd_pr__nfet_01v8__vth0_slope_spectre*(sky130_fd_pr__nfet_01v8__vth0_slope/sqrt(l*w*mult))} lvth0 = 3.322780398e-08 wvth0 = 5.629118589e-08 pvth0 = 3.966593064e-14
+ k1 = 5.306153844e-01 lk1 = 3.767945204e-08 wk1 = 1.370579661e-07 pk1 = -2.679732626e-13
+ k2 = -2.280303039e-02 lk2 = -3.123016719e-08 wk2 = -1.024852280e-07 pk2 = 1.746084733e-13
+ k3 = 2.0
+ k3b = 0.54
+ w0 = 0.0
+ dvt0 = 0.0
+ dvt1 = 0.53
+ dvt2 = -0.032
+ dvt0w = -3.58
+ dvt1w = 1670600.0
+ dvt2w = 0.068
+ dsub = 5.380153891e-01 ldsub = 8.665203596e-08 wdsub = 2.198914673e-06 pdsub = -8.666991401e-12
+ minv = 0.0
+ voffl = 5.8197729e-9
+ lpe0 = 1.0325e-7
+ lpeb = -7.082e-8
+ vbm = -3.0
+ dvtp0 = 0.0
+ dvtp1 = 0.0
+ phin = 0.0
+ cdsc = 0.0
+ cdscb = 0.0
+ cdscd = 0.0054
+ cit = 0.0
+ voff = {-2.574732096e-01+sky130_fd_pr__nfet_01v8__voff_slope_spectre*(sky130_fd_pr__nfet_01v8__voff_slope/sqrt(l*w*mult))} lvoff = -1.276674851e-08 wvoff = -4.366083040e-08 pvoff = 7.892393489e-14
+ nfactor = 2.685068065e+00 lnfactor = -1.656478334e-08 wnfactor = -8.053921037e-07 pnfactor = 3.302412623e-12
+ eta0 = 7.417407812e-02 leta0 = 2.296278953e-08 weta0 = 5.827123885e-07 peta0 = -2.296752721e-12
+ etab = -6.490694912e-02 letab = -2.007418872e-08 wetab = -5.094101673e-07 petab = 2.007833043e-12
+ u0 = 3.248454674e-02 lu0 = 4.460735132e-10 wu0 = 1.276765103e-08 pu0 = -5.080474799e-14
+ ua = -7.764702823e-10 lua = 7.121970541e-17 wua = 1.337627886e-15 pua = -5.116142358e-21
+ ub = 1.732606123e-18 lub = 8.461481542e-27 wub = -6.771514625e-25 pub = 2.965405330e-30
+ uc = 5.865001446e-11 luc = -3.519303660e-17 wuc = -3.247378503e-16 puc = 1.091058657e-21
+ ud = 0.0
+ up = 0.0
+ lp = 1.0
+ eu = 1.67
+ vtl = 0.0
+ xn = 3.0
+ vsat = 80000.0
+ a0 = 1.394640551e+00 la0 = -4.266253605e-07 wa0 = -1.135517398e-06 pa0 = 1.254835905e-12
+ ags = 4.565489758e-01 lags = -8.733694935e-09 wags = -1.442020674e-06 pags = 6.089312598e-12
+ a1 = 0.0
+ a2 = 0.42385546
+ b0 = 0.0
+ b1 = 4.466545308e-24 lb1 = -8.671735184e-30 wb1 = -3.135797092e-29 pb1 = 6.088106153e-35
+ keta = -1.628561723e-02 lketa = 2.749865195e-08 wketa = 8.778174682e-08 pketa = -1.432399447e-13
+ dwg = 0.0
+ dwb = 0.0
+ pclm = -6.034433030e-01 lpclm = 2.315352577e-06 wpclm = 8.547745203e-06 ppclm = -1.700388599e-11
+ pdiblc1 = 0.39
+ pdiblc2 = 3.180469299e-03 lpdiblc2 = -4.268769279e-10 wpdiblc2 = -1.236623145e-08 ppdiblc2 = 4.925104822e-14
+ pdiblcb = -0.025
+ drout = 0.56
+ pscbe1 = 7.039311704e+08 lpscbe1 = 1.865162878e+02 wpscbe1 = 6.744638995e+02 ppscbe1 = -1.309462218e-3
+ pscbe2 = 1.0e-12
+ pvag = 0.0
+ delta = 0.01
+ fprout = 0.0
+ pdits = 0.0
+ pditsl = 0.0
+ pditsd = 0.0
+ lambda = 0.0
+ lc = 5.0e-9
* Parameters FOR Asymmetric AND Bias-Dependent RDS Model
+ rdsw = 65.968
+ rsw = 0.0
+ rdw = 0.0
+ rdswmin = 0.0
+ rdwmin = 0.0
+ rswmin = 0.0
+ prwb = 0.0
+ prwg = 0.021507
+ wr = 1.0
* Impact Ionization Current Model Parameters
+ alpha0 = 3.0e-8
+ alpha1 = 0.85
+ beta0 = 13.86
* Gidl Induced Drain Leakage Model Parameters
+ agidl = 0.0
+ bgidl = 2300000000.0
+ cgidl = 0.5
+ egidl = 0.8
* Gate Dielectric Tunneling Current Model Parameters
+ toxref = 4.148e-9
+ dlcig = 0.0
+ aigbacc = 1.0
+ bigbacc = 0.0
+ cigbacc = 0.0
+ nigbacc = 0.0
+ aigbinv = 0.35
+ bigbinv = 0.03
+ cigbinv = 0.006
+ eigbinv = 1.1
+ nigbinv = 0.0
+ aigc = 0.43
+ bigc = 0.054
+ cigc = 0.075
+ aigsd = 0.43
+ bigsd = 0.054
+ cigsd = 0.075
+ nigc = 0.0
+ poxedge = 1.0
+ pigcd = 1.0
+ ntox = 1.0
+ vfbsdoff = 0.0
* Charge AND Capacitance Model Parameters
+ dlc = 2.3267e-8
+ dwc = -3.2175e-8
+ xpart = 0.0
+ cgso = 2.4083264e-10
+ cgdo = 2.4083264e-10
+ cgbo = 1.0e-13
+ cgdl = 0.0
+ cgsl = 0.0
+ clc = 1.0e-7
+ cle = 0.6
+ cf = 1.4067e-12
+ ckappas = 0.6
+ vfbcv = -1.0
+ acde = 0.4
+ moin = 6.9
+ noff = 3.4037
+ voffcv = -0.17287
* High-Speed/RF Model Parameters
+ xrcrg1 = 12.0
+ xrcrg2 = 1.0
+ rbpb = 50.0
+ rbpd = 50.0
+ rbps = 50.0
+ rbdb = 50.0
+ rbsb = 50.0
+ gbmin = 1.0e-12
* Flicker AND Thermal Noise Model Parameters
+ ef = 0.84
+ noia = 2.5e+42
+ noib = 0.0
+ noic = 0.0
+ em = 41000000.0
+ ntnoi = 1.0
+ lintnoi = -1.0e-7
+ af = 1.0
+ kf = 0.0
+ tnoia = 15000000.0
+ tnoib = 9900000.0
+ rnoia = 0.94
+ rnoib = 0.26
* Layout-Dependent Parasitics Model Parameters
+ xl = 0.0
+ xw = 0.0
+ dmcg = 0.0
+ dmdg = 0.0
+ dmcgt = 0.0
+ xgw = 0.0
+ xgl = 0.0
+ ngcon = 1.0
* Asymmetric Source/Drain Junction Diode Model Parameters
+ jss = 0.00275
+ jsws = 6.0e-10
+ ijthsfwd = 0.1
+ ijthsrev = 0.1
+ bvs = 11.7
+ xjbvs = 1.0
+ pbs = 0.729
+ cjs = 0.001041645846
+ mjs = 0.44
+ pbsws = 0.2
+ cjsws = 2.856175336e-11
+ mjsws = 0.0009
+ pbswgs = 0.95578
+ cjswgs = 1.852257592e-10
+ mjswgs = 0.8
* Temperature Dependence Parameters
+ tnom = 30.0
+ kt1 = -3.113156351e-01 lkt1 = -6.129324575e-09 wkt1 = 3.339716880e-08 pkt1 = -1.944295071e-13
+ kt2 = -4.405890304e-02 lkt2 = -4.610660505e-09 wkt2 = -1.658575532e-08 pkt2 = 3.199830113e-14
+ at = 1.381635522e+05 lat = 7.238333404e-03 wat = 1.836826724e-01 pat = -7.239826817e-7
+ ute = -1.758708369e+00 lute = -2.037239891e-07 wute = -1.605937187e-06 pute = 5.145303895e-12
+ ua1 = 6.189646349e-10 lua1 = -8.989583341e-16 wua1 = -5.175777008e-15 pua1 = 1.453858917e-20
+ ub1 = -9.417373089e-19 lub1 = 1.114069061e-24 wub1 = 5.182191606e-24 pub1 = -1.275174445e-29
+ uc1 = 1.117151042e-14 luc1 = 5.802590764e-17 wuc1 = 1.716226603e-16 puc1 = -2.440939101e-22
+ kt1l = 0.0
+ prt = 0.0
+ tvoff = 1.141105832e-03 ltvoff = -6.266440175e-10 wtvoff = -6.016216739e-10 ptvoff = -2.713923907e-15
+ njs = 1.2928
+ tpb = 0.0012287
+ tcj = 0.000792
+ tpbsw = 0.0
+ tcjsw = 1.0e-5
+ tpbswg = 0.0
+ tcjswg = 0.0
+ xtis = 2.0
+ tvfbsdoff = 0.0
* DW AND DL Parameters
+ ll = 0.0
+ wl = 0.0
+ lln = 1.0
+ wln = 1.0
+ lw = 0.0
+ ww = 0.0
+ lwn = 1.0
+ wwn = 1.0
+ lwl = 0.0
+ wwl = 0.0
+ llc = 0.0
+ wlc = 0.0
+ lwc = 0.0
+ wwc = 0.0
+ lwlc = 0.0
+ wwlc = 0.0
* Stress Parameters
+ saref = 3.0e-6
+ sbref = 3.0e-6
+ kvth0 = 9.8e-9
+ lkvth0 = 0.0
+ wkvth0 = 2.0e-7
+ pkvth0 = 0.0
+ llodvth = 0.0
+ wlodvth = 1.0
+ wlod = 0.0
+ stk2 = 0.0
+ lodk2 = 1.0
+ lodeta0 = 1.0
+ ku0 = -2.7e-8
+ lku0 = 0.0
+ wku0 = 0.0
+ pku0 = 0.0
+ tku0 = 0.0
+ llodku0 = 0.0
+ wlodku0 = 1.0
+ kvsat = 0.2
+ steta0 = 0.0
* Well Proximity Effect Parameters
.model sky130_fd_pr__nfet_01v8__model.4 nmos
* Model Flag Parameters
+ lmin = 1.0e-06 lmax = 2.0e-06 wmin = 7.0e-06 wmax = 0.0001
+ level = 54.0
+ version = 4.5
+ binunit = 2.0
+ mobmod = 0.0
+ capmod = 2.0
+ igcmod = 0.0
+ igbmod = 0.0
+ geomod = 0.0
+ diomod = 1.0
+ rdsmod = 0.0
+ rbodymod = 1.0
+ rgatemod = 0.0
+ permod = 1.0
+ acnqsmod = 0.0
+ trnqsmod = 0.0
+ fnoimod = 1.0
+ tnoimod = 1.0
+ tempmod = 0.0
* Process Parameters
+ toxe = {3.932304e-09+sky130_fd_pr__nfet_01v8__toxe_slope_spectre*(4.148e-09*0.948*(sky130_fd_pr__nfet_01v8__toxe_slope/sqrt(l*w*mult)))}
+ toxm = 4.148e-9
+ dtox = 0.0
+ epsrox = 3.9
+ xj = 1.5e-7
+ ngate = 1.0e+23
+ ndep = 1.7e+17
+ nsd = 1.0e+20
+ rsh = 1.0
+ rshg = 0.1
* Basic Model Parameters
+ wint = -1.0316e-8
+ lint = 2.9257e-8
+ vth0 = {5.494174425e-01+sky130_fd_pr__nfet_01v8__vth0_slope_spectre*(sky130_fd_pr__nfet_01v8__vth0_slope/sqrt(l*w*mult))} lvth0 = -1.957994842e-09 wvth0 = -2.414923493e-08 pvth0 = 1.958398815e-13
+ k1 = 5.524216916e-01 lk1 = -4.657188206e-09 wk1 = -2.408938554e-07 pk1 = 4.658149077e-13
+ k2 = -3.958824177e-02 lk2 = 1.358085705e-09 wk2 = 5.741552014e-08 pk2 = -1.358365905e-13
+ k3 = 2.0
+ k3b = 0.54
+ w0 = 0.0
+ dvt0 = 0.0
+ dvt1 = 0.53
+ dvt2 = -0.032
+ dvt0w = -3.58
+ dvt1w = 1670600.0
+ dvt2w = 0.068
+ dsub = 5.826472000e-01 wdsub = -2.265187257e-6
+ minv = 0.0
+ voffl = 5.8197729e-9
+ lpe0 = 1.0325e-7
+ lpeb = -7.082e-8
+ vbm = -3.0
+ dvtp0 = 0.0
+ dvtp1 = 0.0
+ phin = 0.0
+ cdsc = 0.0
+ cdscb = 0.0
+ cdscd = 0.0054
+ cit = 0.0
+ voff = {-2.646821291e-01+sky130_fd_pr__nfet_01v8__voff_slope_spectre*(sky130_fd_pr__nfet_01v8__voff_slope/sqrt(l*w*mult))} lvoff = 1.229267677e-09 wvoff = 6.031935016e-08 pvoff = -1.229521299e-13
+ nfactor = 2.678822107e+00 lnfactor = -4.438343342e-09 wnfactor = 6.669268918e-07 pnfactor = 4.439259061e-13
+ eta0 = 8.614587586e-02 leta0 = -2.802881704e-10 weta0 = -6.147143873e-07 peta0 = 2.803459994e-14
+ etab = -7.523317378e-02 letab = -2.596811357e-11 wetab = 5.234253492e-07 petab = 2.597347131e-15
+ u0 = 3.237751711e-02 lu0 = 6.538700426e-10 wu0 = 2.028547342e-08 pu0 = -6.540049491e-14
+ ua = -7.764744977e-10 lua = 7.122788960e-17 wua = 2.371947050e-15 pua = -7.124258534e-21
+ ub = 1.767483152e-18 lub = -5.925178081e-26 wub = -2.202269457e-24 pub = 5.926400564e-30
+ uc = 3.956786110e-11 luc = 1.854697008e-18 wuc = 3.327825359e-16 puc = -1.855079669e-22
+ ud = 0.0
+ up = 0.0
+ lp = 1.0
+ eu = 1.67
+ vtl = 0.0
+ xn = 3.0
+ vsat = 8.144279014e+04 lvsat = -2.801156853e-03 wvsat = -1.443087814e-01 pvsat = 2.801734788e-7
+ a0 = 1.168136717e+00 la0 = 1.312866340e-08 wa0 = 1.871669356e-07 pa0 = -1.313137211e-12
+ ags = 4.711814167e-01 lags = -3.714237396e-08 wags = -2.190868585e-07 pags = 3.715003717e-12
+ a1 = 0.0
+ a2 = 0.42385546
+ b0 = 0.0
+ b1 = 0.0
+ keta = -6.737729786e-03 lketa = 8.961562150e-09 wketa = 4.756811009e-07 pketa = -8.963411100e-13
+ dwg = 0.0
+ dwb = 0.0
+ pclm = 5.772212616e-01 lpclm = 2.310885410e-08 wpclm = 9.800760065e-07 ppclm = -2.311362192e-12
+ pdiblc1 = 4.125418191e-01 lpdiblc1 = -4.376462613e-08 wpdiblc1 = -2.254646989e-06 ppdiblc1 = 4.377365565e-12
+ pdiblc2 = 2.903662834e-03 lpdiblc2 = 1.105389482e-10 wpdiblc2 = 1.869617316e-08 ppdiblc2 = -1.105617546e-14
+ pdiblcb = -2.323678196e-02 lpdiblcb = -3.423263134e-09 wpdiblcb = -1.763581824e-07 ppdiblcb = 3.423969421e-13
+ drout = 5.386779783e-01 ldrout = 4.139640670e-08 wdrout = 2.132642090e-06 pdrout = -4.140494760e-12
+ pscbe1 = 7.616967335e+08 lpscbe1 = 7.436525565e+01 wpscbe1 = 3.831116922e+03 ppscbe1 = -7.438059869e-3
+ pscbe2 = 1.0e-12
+ pvag = 0.0
+ delta = 0.01
+ fprout = 0.0
+ pdits = 0.0
+ pditsl = 0.0
+ pditsd = 0.0
+ lambda = 0.0
+ lc = 5.0e-9
* Parameters FOR Asymmetric AND Bias-Dependent RDS Model
+ rdsw = 65.968
+ rsw = 0.0
+ rdw = 0.0
+ rdswmin = 0.0
+ rdwmin = 0.0
+ rswmin = 0.0
+ prwb = 0.0
+ prwg = 0.021507
+ wr = 1.0
* Impact Ionization Current Model Parameters
+ alpha0 = 2.155015891e-07 lalpha0 = -3.601487383e-13 walpha0 = -1.855398618e-11 palpha0 = 3.602230442e-17
+ alpha1 = 8.524164958e-01 lalpha1 = -4.691592759e-09 walpha1 = -2.416994369e-07 palpha1 = 4.692560729e-13
+ beta0 = 1.405701548e+01 lbeta0 = -3.825027979e-07 wbeta0 = -1.970561291e-05 pbeta0 = 3.825817159e-11
* Gidl Induced Drain Leakage Model Parameters
+ agidl = 0.0
+ bgidl = 2300000000.0
+ cgidl = 0.5
+ egidl = 0.8
* Gate Dielectric Tunneling Current Model Parameters
+ toxref = 4.148e-9
+ dlcig = 0.0
+ aigbacc = 1.0
+ bigbacc = 0.0
+ cigbacc = 0.0
+ nigbacc = 0.0
+ aigbinv = 0.35
+ bigbinv = 0.03
+ cigbinv = 0.006
+ eigbinv = 1.1
+ nigbinv = 0.0
+ aigc = 0.43
+ bigc = 0.054
+ cigc = 0.075
+ aigsd = 0.43
+ bigsd = 0.054
+ cigsd = 0.075
+ nigc = 0.0
+ poxedge = 1.0
+ pigcd = 1.0
+ ntox = 1.0
+ vfbsdoff = 0.0
* Charge AND Capacitance Model Parameters
+ dlc = 2.3267e-8
+ dwc = -3.2175e-8
+ xpart = 0.0
+ cgso = 2.4083264e-10
+ cgdo = 2.4083264e-10
+ cgbo = 1.0e-13
+ cgdl = 0.0
+ cgsl = 0.0
+ clc = 1.0e-7
+ cle = 0.6
+ cf = 1.4067e-12
+ ckappas = 0.6
+ vfbcv = -1.0
+ acde = 0.4
+ moin = 6.9
+ noff = 3.4037
+ voffcv = -0.17287
* High-Speed/RF Model Parameters
+ xrcrg1 = 12.0