.subckt cm_ota_extracted ID VOUT VINN VINP VSS VDD
* SPICE3 file created from CURRENT_MIRROR_OTA_0.ext - technology: sky130A

X0 m2_316_42299# m2_316_42299# VSS VSS sky130_fd_pr__nfet_01v8 ad=0.0588 pd=0.7 as=0.111 ps=1.37 w=0.42 l=0.15
X1 m2_316_42299# m2_316_42299# VSS VSS sky130_fd_pr__nfet_01v8 ad=0.0588 pd=0.7 as=0.111 ps=1.37 w=0.42 l=0.15
X2 VSS m2_316_42299# m2_316_42299# VSS sky130_fd_pr__nfet_01v8 ad=0.111 pd=1.37 as=0.0588 ps=0.7 w=0.42 l=0.15
X3 VSS m2_316_42299# m2_316_42299# VSS sky130_fd_pr__nfet_01v8 ad=0.111 pd=1.37 as=0.0588 ps=0.7 w=0.42 l=0.15
X4 m2_316_42299# m2_316_42299# VSS VSS sky130_fd_pr__nfet_01v8 ad=0.0588 pd=0.7 as=0.111 ps=1.37 w=0.42 l=0.15
X5 m2_316_42299# m2_316_42299# VSS VSS sky130_fd_pr__nfet_01v8 ad=0.0588 pd=0.7 as=0.111 ps=1.37 w=0.42 l=0.15
X6 VSS m2_316_42299# m2_316_42299# VSS sky130_fd_pr__nfet_01v8 ad=0.111 pd=1.37 as=0.0588 ps=0.7 w=0.42 l=0.15
X7 VSS m2_316_42299# m2_316_42299# VSS sky130_fd_pr__nfet_01v8 ad=0.111 pd=1.37 as=0.0588 ps=0.7 w=0.42 l=0.15
X8 m2_316_42299# m2_316_42299# VSS VSS sky130_fd_pr__nfet_01v8 ad=0.0588 pd=0.7 as=0.111 ps=1.37 w=0.42 l=0.15
X9 VSS m2_316_42299# m2_316_42299# VSS sky130_fd_pr__nfet_01v8 ad=0.111 pd=1.37 as=0.0588 ps=0.7 w=0.42 l=0.15
X10 VSS m2_316_42299# m2_316_42299# VSS sky130_fd_pr__nfet_01v8 ad=0.111 pd=1.37 as=0.0588 ps=0.7 w=0.42 l=0.15
X11 VSS m2_316_42299# m2_316_42299# VSS sky130_fd_pr__nfet_01v8 ad=0.111 pd=1.37 as=0.0588 ps=0.7 w=0.42 l=0.15
X12 VSS m2_316_42299# m2_316_42299# VSS sky130_fd_pr__nfet_01v8 ad=0.111 pd=1.37 as=0.0588 ps=0.7 w=0.42 l=0.15
X13 VSS m2_316_42299# m2_316_42299# VSS sky130_fd_pr__nfet_01v8 ad=0.111 pd=1.37 as=0.0588 ps=0.7 w=0.42 l=0.15
X14 VSS m2_316_42299# m2_316_42299# VSS sky130_fd_pr__nfet_01v8 ad=0.111 pd=1.37 as=0.0588 ps=0.7 w=0.42 l=0.15
X15 VSS m2_316_42299# m2_316_42299# VSS sky130_fd_pr__nfet_01v8 ad=0.111 pd=1.37 as=0.0588 ps=0.7 w=0.42 l=0.15
X16 m2_316_42299# m2_316_42299# VSS VSS sky130_fd_pr__nfet_01v8 ad=0.0588 pd=0.7 as=0.111 ps=1.37 w=0.42 l=0.15
X17 VSS m2_316_42299# m2_316_42299# VSS sky130_fd_pr__nfet_01v8 ad=0.111 pd=1.37 as=0.0588 ps=0.7 w=0.42 l=0.15
X18 m2_316_42299# m2_316_42299# VSS VSS sky130_fd_pr__nfet_01v8 ad=0.0588 pd=0.7 as=0.111 ps=1.37 w=0.42 l=0.15
X19 m2_316_42299# m2_316_42299# VSS VSS sky130_fd_pr__nfet_01v8 ad=0.0588 pd=0.7 as=0.111 ps=1.37 w=0.42 l=0.15
X20 VSS m2_316_42299# m2_316_42299# VSS sky130_fd_pr__nfet_01v8 ad=0.111 pd=1.37 as=0.0588 ps=0.7 w=0.42 l=0.15
X21 m2_316_42299# m2_316_42299# VSS VSS sky130_fd_pr__nfet_01v8 ad=0.0588 pd=0.7 as=0.111 ps=1.37 w=0.42 l=0.15
X22 m2_316_42299# m2_316_42299# VSS VSS sky130_fd_pr__nfet_01v8 ad=0.0588 pd=0.7 as=0.111 ps=1.37 w=0.42 l=0.15
X23 m2_316_42299# m2_316_42299# VSS VSS sky130_fd_pr__nfet_01v8 ad=0.0588 pd=0.7 as=0.111 ps=1.37 w=0.42 l=0.15
X24 VSS m2_316_42299# m2_316_42299# VSS sky130_fd_pr__nfet_01v8 ad=0.111 pd=1.37 as=0.0588 ps=0.7 w=0.42 l=0.15
X25 VSS m2_316_42299# m2_316_42299# VSS sky130_fd_pr__nfet_01v8 ad=0.111 pd=1.37 as=0.0588 ps=0.7 w=0.42 l=0.15
X26 VSS m2_316_42299# m2_316_42299# VSS sky130_fd_pr__nfet_01v8 ad=0.111 pd=1.37 as=0.0588 ps=0.7 w=0.42 l=0.15
X27 m2_316_42299# m2_316_42299# VSS VSS sky130_fd_pr__nfet_01v8 ad=0.0588 pd=0.7 as=0.111 ps=1.37 w=0.42 l=0.15
X28 VSS m2_316_42299# m2_316_42299# VSS sky130_fd_pr__nfet_01v8 ad=0.111 pd=1.37 as=0.0588 ps=0.7 w=0.42 l=0.15
X29 m2_316_42299# m2_316_42299# VSS VSS sky130_fd_pr__nfet_01v8 ad=0.0588 pd=0.7 as=0.111 ps=1.37 w=0.42 l=0.15
X30 VSS m2_316_42299# m2_316_42299# VSS sky130_fd_pr__nfet_01v8 ad=0.111 pd=1.37 as=0.0588 ps=0.7 w=0.42 l=0.15
X31 m2_316_42299# m2_316_42299# VSS VSS sky130_fd_pr__nfet_01v8 ad=0.0588 pd=0.7 as=0.111 ps=1.37 w=0.42 l=0.15
X32 m2_316_42299# m2_316_42299# VSS VSS sky130_fd_pr__nfet_01v8 ad=0.0588 pd=0.7 as=0.111 ps=1.37 w=0.42 l=0.15
X33 m2_316_42299# m2_316_42299# VSS VSS sky130_fd_pr__nfet_01v8 ad=0.0588 pd=0.7 as=0.111 ps=1.37 w=0.42 l=0.15
X34 m2_316_42299# m2_316_42299# VSS VSS sky130_fd_pr__nfet_01v8 ad=0.0588 pd=0.7 as=0.111 ps=1.37 w=0.42 l=0.15
X35 m2_316_42299# m2_316_42299# VSS VSS sky130_fd_pr__nfet_01v8 ad=0.0588 pd=0.7 as=0.111 ps=1.37 w=0.42 l=0.15
X36 VSS m2_316_42299# m2_316_42299# VSS sky130_fd_pr__nfet_01v8 ad=0.111 pd=1.37 as=0.0588 ps=0.7 w=0.42 l=0.15
X37 VSS m2_316_42299# m2_316_42299# VSS sky130_fd_pr__nfet_01v8 ad=0.111 pd=1.37 as=0.0588 ps=0.7 w=0.42 l=0.15
X38 m2_316_42299# m2_316_42299# VSS VSS sky130_fd_pr__nfet_01v8 ad=0.0588 pd=0.7 as=0.111 ps=1.37 w=0.42 l=0.15
X39 m2_316_42299# m2_316_42299# VSS VSS sky130_fd_pr__nfet_01v8 ad=0.0588 pd=0.7 as=0.111 ps=1.37 w=0.42 l=0.15
X40 m2_316_42299# m2_316_42299# VSS VSS sky130_fd_pr__nfet_01v8 ad=0.0588 pd=0.7 as=0.111 ps=1.37 w=0.42 l=0.15
X41 m2_316_42299# m2_316_42299# VSS VSS sky130_fd_pr__nfet_01v8 ad=0.0588 pd=0.7 as=0.111 ps=1.37 w=0.42 l=0.15
X42 VSS m2_316_42299# m2_316_42299# VSS sky130_fd_pr__nfet_01v8 ad=0.111 pd=1.37 as=0.0588 ps=0.7 w=0.42 l=0.15
X43 VSS m2_316_42299# m2_316_42299# VSS sky130_fd_pr__nfet_01v8 ad=0.111 pd=1.37 as=0.0588 ps=0.7 w=0.42 l=0.15
X44 VSS m2_316_42299# m2_316_42299# VSS sky130_fd_pr__nfet_01v8 ad=0.111 pd=1.37 as=0.0588 ps=0.7 w=0.42 l=0.15
X45 m2_316_42299# m2_316_42299# VSS VSS sky130_fd_pr__nfet_01v8 ad=0.0588 pd=0.7 as=0.111 ps=1.37 w=0.42 l=0.15
X46 m2_316_42299# m2_316_42299# VSS VSS sky130_fd_pr__nfet_01v8 ad=0.0588 pd=0.7 as=0.111 ps=1.37 w=0.42 l=0.15
X47 VSS m2_316_42299# m2_316_42299# VSS sky130_fd_pr__nfet_01v8 ad=0.111 pd=1.37 as=0.0588 ps=0.7 w=0.42 l=0.15
X48 VSS m2_316_42299# m2_316_42299# VSS sky130_fd_pr__nfet_01v8 ad=0.111 pd=1.37 as=0.0588 ps=0.7 w=0.42 l=0.15
X49 m2_316_42299# m2_316_42299# VSS VSS sky130_fd_pr__nfet_01v8 ad=0.0588 pd=0.7 as=0.111 ps=1.37 w=0.42 l=0.15
X50 m2_316_42299# m2_316_42299# VSS VSS sky130_fd_pr__nfet_01v8 ad=0.0588 pd=0.7 as=0.111 ps=1.37 w=0.42 l=0.15
X51 VSS m2_316_42299# m2_316_42299# VSS sky130_fd_pr__nfet_01v8 ad=0.111 pd=1.37 as=0.0588 ps=0.7 w=0.42 l=0.15
X52 VSS m2_316_42299# m2_316_42299# VSS sky130_fd_pr__nfet_01v8 ad=0.111 pd=1.37 as=0.0588 ps=0.7 w=0.42 l=0.15
X53 VSS m2_316_42299# m2_316_42299# VSS sky130_fd_pr__nfet_01v8 ad=0.111 pd=1.37 as=0.0588 ps=0.7 w=0.42 l=0.15
X54 m2_316_42299# m2_316_42299# VSS VSS sky130_fd_pr__nfet_01v8 ad=0.0588 pd=0.7 as=0.111 ps=1.37 w=0.42 l=0.15
X55 VSS m2_316_42299# m2_316_42299# VSS sky130_fd_pr__nfet_01v8 ad=0.111 pd=1.37 as=0.0588 ps=0.7 w=0.42 l=0.15
X56 VSS m2_316_42299# m2_316_42299# VSS sky130_fd_pr__nfet_01v8 ad=0.111 pd=1.37 as=0.0588 ps=0.7 w=0.42 l=0.15
X57 m2_316_42299# m2_316_42299# VSS VSS sky130_fd_pr__nfet_01v8 ad=0.0588 pd=0.7 as=0.111 ps=1.37 w=0.42 l=0.15
X58 m2_316_42299# m2_316_42299# VSS VSS sky130_fd_pr__nfet_01v8 ad=0.0588 pd=0.7 as=0.111 ps=1.37 w=0.42 l=0.15
X59 VSS m2_316_42299# m2_316_42299# VSS sky130_fd_pr__nfet_01v8 ad=0.111 pd=1.37 as=0.0588 ps=0.7 w=0.42 l=0.15
X60 VSS m2_316_42299# m2_316_42299# VSS sky130_fd_pr__nfet_01v8 ad=0.111 pd=1.37 as=0.0588 ps=0.7 w=0.42 l=0.15
X61 VSS m2_316_42299# m2_316_42299# VSS sky130_fd_pr__nfet_01v8 ad=0.111 pd=1.37 as=0.0588 ps=0.7 w=0.42 l=0.15
X62 m2_316_42299# m2_316_42299# VSS VSS sky130_fd_pr__nfet_01v8 ad=0.0588 pd=0.7 as=0.111 ps=1.37 w=0.42 l=0.15
X63 VSS m2_316_42299# m2_316_42299# VSS sky130_fd_pr__nfet_01v8 ad=0.111 pd=1.37 as=0.0588 ps=0.7 w=0.42 l=0.15
X64 m2_316_42299# m2_316_42299# VSS VSS sky130_fd_pr__nfet_01v8 ad=0.0588 pd=0.7 as=0.111 ps=1.37 w=0.42 l=0.15
X65 m2_316_42299# m2_316_42299# VSS VSS sky130_fd_pr__nfet_01v8 ad=0.0588 pd=0.7 as=0.111 ps=1.37 w=0.42 l=0.15
X66 VSS m2_316_42299# m2_316_42299# VSS sky130_fd_pr__nfet_01v8 ad=0.111 pd=1.37 as=0.0588 ps=0.7 w=0.42 l=0.15
X67 m2_316_42299# m2_316_42299# VSS VSS sky130_fd_pr__nfet_01v8 ad=0.0588 pd=0.7 as=0.111 ps=1.37 w=0.42 l=0.15
X68 m2_316_42299# m2_316_42299# VSS VSS sky130_fd_pr__nfet_01v8 ad=0.0588 pd=0.7 as=0.111 ps=1.37 w=0.42 l=0.15
X69 VSS m2_316_42299# m2_316_42299# VSS sky130_fd_pr__nfet_01v8 ad=0.111 pd=1.37 as=0.0588 ps=0.7 w=0.42 l=0.15
X70 VSS m2_316_42299# m2_316_42299# VSS sky130_fd_pr__nfet_01v8 ad=0.111 pd=1.37 as=0.0588 ps=0.7 w=0.42 l=0.15
X71 VSS m2_316_42299# m2_316_42299# VSS sky130_fd_pr__nfet_01v8 ad=0.111 pd=1.37 as=0.0588 ps=0.7 w=0.42 l=0.15
X72 VSS m2_316_42299# m2_316_42299# VSS sky130_fd_pr__nfet_01v8 ad=0.111 pd=1.37 as=0.0588 ps=0.7 w=0.42 l=0.15
X73 VSS m2_316_42299# m2_316_42299# VSS sky130_fd_pr__nfet_01v8 ad=0.111 pd=1.37 as=0.0588 ps=0.7 w=0.42 l=0.15
X74 m2_316_42299# m2_316_42299# VSS VSS sky130_fd_pr__nfet_01v8 ad=0.0588 pd=0.7 as=0.111 ps=1.37 w=0.42 l=0.15
X75 m2_316_42299# m2_316_42299# VSS VSS sky130_fd_pr__nfet_01v8 ad=0.0588 pd=0.7 as=0.111 ps=1.37 w=0.42 l=0.15
X76 m2_316_42299# m2_316_42299# VSS VSS sky130_fd_pr__nfet_01v8 ad=0.0588 pd=0.7 as=0.111 ps=1.37 w=0.42 l=0.15
X77 m2_316_42299# m2_316_42299# VSS VSS sky130_fd_pr__nfet_01v8 ad=0.0588 pd=0.7 as=0.111 ps=1.37 w=0.42 l=0.15
X78 m2_316_42299# m2_316_42299# VSS VSS sky130_fd_pr__nfet_01v8 ad=0.0588 pd=0.7 as=0.111 ps=1.37 w=0.42 l=0.15
X79 VSS m2_316_42299# m2_316_42299# VSS sky130_fd_pr__nfet_01v8 ad=0.111 pd=1.37 as=0.0588 ps=0.7 w=0.42 l=0.15
X80 m2_316_42299# m2_316_42299# VSS VSS sky130_fd_pr__nfet_01v8 ad=0.0588 pd=0.7 as=0.111 ps=1.37 w=0.42 l=0.15
X81 m2_316_42299# m2_316_42299# VSS VSS sky130_fd_pr__nfet_01v8 ad=0.0588 pd=0.7 as=0.111 ps=1.37 w=0.42 l=0.15
X82 m2_316_42299# m2_316_42299# VSS VSS sky130_fd_pr__nfet_01v8 ad=0.0588 pd=0.7 as=0.111 ps=1.37 w=0.42 l=0.15
X83 VSS m2_316_42299# m2_316_42299# VSS sky130_fd_pr__nfet_01v8 ad=0.111 pd=1.37 as=0.0588 ps=0.7 w=0.42 l=0.15
X84 m2_316_42299# m2_316_42299# VSS VSS sky130_fd_pr__nfet_01v8 ad=0.0588 pd=0.7 as=0.111 ps=1.37 w=0.42 l=0.15
X85 m2_316_42299# m2_316_42299# VSS VSS sky130_fd_pr__nfet_01v8 ad=0.0588 pd=0.7 as=0.111 ps=1.37 w=0.42 l=0.15
X86 m2_316_42299# m2_316_42299# VSS VSS sky130_fd_pr__nfet_01v8 ad=0.0588 pd=0.7 as=0.111 ps=1.37 w=0.42 l=0.15
X87 m2_316_42299# m2_316_42299# VSS VSS sky130_fd_pr__nfet_01v8 ad=0.0588 pd=0.7 as=0.111 ps=1.37 w=0.42 l=0.15
X88 VSS m2_316_42299# m2_316_42299# VSS sky130_fd_pr__nfet_01v8 ad=0.111 pd=1.37 as=0.0588 ps=0.7 w=0.42 l=0.15
X89 VSS m2_316_42299# m2_316_42299# VSS sky130_fd_pr__nfet_01v8 ad=0.111 pd=1.37 as=0.0588 ps=0.7 w=0.42 l=0.15
X90 m2_316_42299# m2_316_42299# VSS VSS sky130_fd_pr__nfet_01v8 ad=0.0588 pd=0.7 as=0.111 ps=1.37 w=0.42 l=0.15
X91 m2_316_42299# m2_316_42299# VSS VSS sky130_fd_pr__nfet_01v8 ad=0.0588 pd=0.7 as=0.111 ps=1.37 w=0.42 l=0.15
X92 VSS m2_316_42299# m2_316_42299# VSS sky130_fd_pr__nfet_01v8 ad=0.111 pd=1.37 as=0.0588 ps=0.7 w=0.42 l=0.15
X93 m2_316_42299# m2_316_42299# VSS VSS sky130_fd_pr__nfet_01v8 ad=0.0588 pd=0.7 as=0.111 ps=1.37 w=0.42 l=0.15
X94 m2_316_42299# m2_316_42299# VSS VSS sky130_fd_pr__nfet_01v8 ad=0.0588 pd=0.7 as=0.111 ps=1.37 w=0.42 l=0.15
X95 m2_316_42299# m2_316_42299# VSS VSS sky130_fd_pr__nfet_01v8 ad=0.0588 pd=0.7 as=0.111 ps=1.37 w=0.42 l=0.15
X96 VSS m2_316_42299# m2_316_42299# VSS sky130_fd_pr__nfet_01v8 ad=0.111 pd=1.37 as=0.0588 ps=0.7 w=0.42 l=0.15
X97 VSS m2_316_42299# m2_316_42299# VSS sky130_fd_pr__nfet_01v8 ad=0.111 pd=1.37 as=0.0588 ps=0.7 w=0.42 l=0.15
X98 VSS m2_316_42299# m2_316_42299# VSS sky130_fd_pr__nfet_01v8 ad=0.111 pd=1.37 as=0.0588 ps=0.7 w=0.42 l=0.15
X99 VSS m2_316_42299# m2_316_42299# VSS sky130_fd_pr__nfet_01v8 ad=0.111 pd=1.37 as=0.0588 ps=0.7 w=0.42 l=0.15
X100 VSS m2_316_42299# m2_316_42299# VSS sky130_fd_pr__nfet_01v8 ad=0.111 pd=1.37 as=0.0588 ps=0.7 w=0.42 l=0.15
X101 VSS m2_316_42299# m2_316_42299# VSS sky130_fd_pr__nfet_01v8 ad=0.111 pd=1.37 as=0.0588 ps=0.7 w=0.42 l=0.15
X102 VSS m2_316_42299# m2_316_42299# VSS sky130_fd_pr__nfet_01v8 ad=0.111 pd=1.37 as=0.0588 ps=0.7 w=0.42 l=0.15
X103 m2_316_42299# m2_316_42299# VSS VSS sky130_fd_pr__nfet_01v8 ad=0.0588 pd=0.7 as=0.111 ps=1.37 w=0.42 l=0.15
X104 m2_316_42299# m2_316_42299# VSS VSS sky130_fd_pr__nfet_01v8 ad=0.0588 pd=0.7 as=0.111 ps=1.37 w=0.42 l=0.15
X105 m2_316_42299# m2_316_42299# VSS VSS sky130_fd_pr__nfet_01v8 ad=0.0588 pd=0.7 as=0.111 ps=1.37 w=0.42 l=0.15
X106 m2_316_42299# m2_316_42299# VSS VSS sky130_fd_pr__nfet_01v8 ad=0.0588 pd=0.7 as=0.111 ps=1.37 w=0.42 l=0.15
X107 VSS m2_316_42299# m2_316_42299# VSS sky130_fd_pr__nfet_01v8 ad=0.111 pd=1.37 as=0.0588 ps=0.7 w=0.42 l=0.15
X108 VSS m2_316_42299# m2_316_42299# VSS sky130_fd_pr__nfet_01v8 ad=0.111 pd=1.37 as=0.0588 ps=0.7 w=0.42 l=0.15
X109 VSS m2_316_42299# m2_316_42299# VSS sky130_fd_pr__nfet_01v8 ad=0.111 pd=1.37 as=0.0588 ps=0.7 w=0.42 l=0.15
X110 VSS m2_316_42299# m2_316_42299# VSS sky130_fd_pr__nfet_01v8 ad=0.111 pd=1.37 as=0.0588 ps=0.7 w=0.42 l=0.15
X111 VSS m2_316_42299# m2_316_42299# VSS sky130_fd_pr__nfet_01v8 ad=0.111 pd=1.37 as=0.0588 ps=0.7 w=0.42 l=0.15
X112 m2_316_42299# m2_316_42299# VSS VSS sky130_fd_pr__nfet_01v8 ad=0.0588 pd=0.7 as=0.111 ps=1.37 w=0.42 l=0.15
X113 m2_316_42299# m2_316_42299# VSS VSS sky130_fd_pr__nfet_01v8 ad=0.0588 pd=0.7 as=0.111 ps=1.37 w=0.42 l=0.15
X114 VSS m2_316_42299# m2_316_42299# VSS sky130_fd_pr__nfet_01v8 ad=0.111 pd=1.37 as=0.0588 ps=0.7 w=0.42 l=0.15
X115 m2_316_42299# m2_316_42299# VSS VSS sky130_fd_pr__nfet_01v8 ad=0.0588 pd=0.7 as=0.111 ps=1.37 w=0.42 l=0.15
X116 m2_316_42299# m2_316_42299# VSS VSS sky130_fd_pr__nfet_01v8 ad=0.0588 pd=0.7 as=0.111 ps=1.37 w=0.42 l=0.15
X117 VSS m2_316_42299# m2_316_42299# VSS sky130_fd_pr__nfet_01v8 ad=0.111 pd=1.37 as=0.0588 ps=0.7 w=0.42 l=0.15
X118 m2_316_42299# m2_316_42299# VSS VSS sky130_fd_pr__nfet_01v8 ad=0.0588 pd=0.7 as=0.111 ps=1.37 w=0.42 l=0.15
X119 m2_316_42299# m2_316_42299# VSS VSS sky130_fd_pr__nfet_01v8 ad=0.0588 pd=0.7 as=0.111 ps=1.37 w=0.42 l=0.15
X120 VSS m2_316_42299# m2_316_42299# VSS sky130_fd_pr__nfet_01v8 ad=0.111 pd=1.37 as=0.0588 ps=0.7 w=0.42 l=0.15
X121 VSS m2_316_42299# m2_316_42299# VSS sky130_fd_pr__nfet_01v8 ad=0.111 pd=1.37 as=0.0588 ps=0.7 w=0.42 l=0.15
X122 m2_316_42299# m2_316_42299# VSS VSS sky130_fd_pr__nfet_01v8 ad=0.0588 pd=0.7 as=0.111 ps=1.37 w=0.42 l=0.15
X123 VSS m2_316_42299# m2_316_42299# VSS sky130_fd_pr__nfet_01v8 ad=0.111 pd=1.37 as=0.0588 ps=0.7 w=0.42 l=0.15
X124 m2_316_42299# m2_316_42299# VSS VSS sky130_fd_pr__nfet_01v8 ad=0.0588 pd=0.7 as=0.111 ps=1.37 w=0.42 l=0.15
X125 VSS m2_316_42299# m2_316_42299# VSS sky130_fd_pr__nfet_01v8 ad=0.111 pd=1.37 as=0.0588 ps=0.7 w=0.42 l=0.15
X126 VSS m2_316_42299# m2_316_42299# VSS sky130_fd_pr__nfet_01v8 ad=0.111 pd=1.37 as=0.0588 ps=0.7 w=0.42 l=0.15
X127 VSS m2_316_42299# m2_316_42299# VSS sky130_fd_pr__nfet_01v8 ad=0.111 pd=1.37 as=0.0588 ps=0.7 w=0.42 l=0.15
X128 m2_316_42299# m2_316_42299# VSS VSS sky130_fd_pr__nfet_01v8 ad=0.0588 pd=0.7 as=0.111 ps=1.37 w=0.42 l=0.15
X129 m2_316_42299# m2_316_42299# VSS VSS sky130_fd_pr__nfet_01v8 ad=0.0588 pd=0.7 as=0.111 ps=1.37 w=0.42 l=0.15
X130 m2_316_42299# m2_316_42299# VSS VSS sky130_fd_pr__nfet_01v8 ad=0.0588 pd=0.7 as=0.111 ps=1.37 w=0.42 l=0.15
X131 VSS m2_316_42299# m2_316_42299# VSS sky130_fd_pr__nfet_01v8 ad=0.111 pd=1.37 as=0.0588 ps=0.7 w=0.42 l=0.15
X132 m2_316_42299# m2_316_42299# VSS VSS sky130_fd_pr__nfet_01v8 ad=0.0588 pd=0.7 as=0.111 ps=1.37 w=0.42 l=0.15
X133 VSS m2_316_42299# m2_316_42299# VSS sky130_fd_pr__nfet_01v8 ad=0.111 pd=1.37 as=0.0588 ps=0.7 w=0.42 l=0.15
X134 VSS m2_316_42299# m2_316_42299# VSS sky130_fd_pr__nfet_01v8 ad=0.111 pd=1.37 as=0.0588 ps=0.7 w=0.42 l=0.15
X135 m2_316_42299# m2_316_42299# VSS VSS sky130_fd_pr__nfet_01v8 ad=0.0588 pd=0.7 as=0.111 ps=1.37 w=0.42 l=0.15
X136 m2_316_42299# m2_316_42299# VSS VSS sky130_fd_pr__nfet_01v8 ad=0.0588 pd=0.7 as=0.111 ps=1.37 w=0.42 l=0.15
X137 m2_316_42299# m2_316_42299# VSS VSS sky130_fd_pr__nfet_01v8 ad=0.0588 pd=0.7 as=0.111 ps=1.37 w=0.42 l=0.15
X138 VSS m2_316_42299# m2_316_42299# VSS sky130_fd_pr__nfet_01v8 ad=0.111 pd=1.37 as=0.0588 ps=0.7 w=0.42 l=0.15
X139 m2_316_42299# m2_316_42299# VSS VSS sky130_fd_pr__nfet_01v8 ad=0.0588 pd=0.7 as=0.111 ps=1.37 w=0.42 l=0.15
X140 VSS m2_316_42299# m2_316_42299# VSS sky130_fd_pr__nfet_01v8 ad=0.111 pd=1.37 as=0.0588 ps=0.7 w=0.42 l=0.15
X141 VSS m2_316_42299# m2_316_42299# VSS sky130_fd_pr__nfet_01v8 ad=0.111 pd=1.37 as=0.0588 ps=0.7 w=0.42 l=0.15
X142 VDD m2_1606_11172# m2_1606_11172# VDD sky130_fd_pr__pfet_01v8 ad=0.0588 pd=0.7 as=0.0588 ps=0.7 w=0.42 l=0.15
X143 m2_1606_11172# m2_1606_11172# VDD VDD sky130_fd_pr__pfet_01v8 ad=0.0588 pd=0.7 as=0.0588 ps=0.7 w=0.42 l=0.15
X144 m2_1606_11172# m2_1606_11172# VDD VDD sky130_fd_pr__pfet_01v8 ad=0.0588 pd=0.7 as=0.111 ps=1.37 w=0.42 l=0.15
X145 VDD m2_1606_11172# m2_1606_11172# VDD sky130_fd_pr__pfet_01v8 ad=0.0588 pd=0.7 as=0.0588 ps=0.7 w=0.42 l=0.15
X146 VDD m2_1606_11172# m2_1606_11172# VDD sky130_fd_pr__pfet_01v8 ad=0.111 pd=1.37 as=0.0588 ps=0.7 w=0.42 l=0.15
X147 m2_1606_11172# m2_1606_11172# VDD VDD sky130_fd_pr__pfet_01v8 ad=0.0588 pd=0.7 as=0.0588 ps=0.7 w=0.42 l=0.15
X148 VDD m2_1606_11172# VOUT VDD sky130_fd_pr__pfet_01v8 ad=0.111 pd=1.37 as=0.0588 ps=0.7 w=0.42 l=0.15
X149 VOUT m2_1606_11172# VDD VDD sky130_fd_pr__pfet_01v8 ad=0.0588 pd=0.7 as=0.111 ps=1.37 w=0.42 l=0.15
X150 VOUT m2_1606_11172# VDD VDD sky130_fd_pr__pfet_01v8 ad=0.0588 pd=0.7 as=0.111 ps=1.37 w=0.42 l=0.15
X151 VOUT m2_1606_11172# VDD VDD sky130_fd_pr__pfet_01v8 ad=0.0588 pd=0.7 as=0.111 ps=1.37 w=0.42 l=0.15
X152 VOUT m2_1606_11172# VDD VDD sky130_fd_pr__pfet_01v8 ad=0.0588 pd=0.7 as=0.111 ps=1.37 w=0.42 l=0.15
X153 VDD m2_1606_11172# VOUT VDD sky130_fd_pr__pfet_01v8 ad=0.111 pd=1.37 as=0.0588 ps=0.7 w=0.42 l=0.15
X154 VDD m2_1606_11172# VOUT VDD sky130_fd_pr__pfet_01v8 ad=0.111 pd=1.37 as=0.0588 ps=0.7 w=0.42 l=0.15
X155 VDD m2_1606_11172# VOUT VDD sky130_fd_pr__pfet_01v8 ad=0.111 pd=1.37 as=0.0588 ps=0.7 w=0.42 l=0.15
X156 VDD m2_1606_11172# VOUT VDD sky130_fd_pr__pfet_01v8 ad=0.111 pd=1.37 as=0.0588 ps=0.7 w=0.42 l=0.15
X157 VDD m2_1606_11172# VOUT VDD sky130_fd_pr__pfet_01v8 ad=0.111 pd=1.37 as=0.0588 ps=0.7 w=0.42 l=0.15
X158 VOUT m2_1606_11172# VDD VDD sky130_fd_pr__pfet_01v8 ad=0.0588 pd=0.7 as=0.111 ps=1.37 w=0.42 l=0.15
X159 VOUT m2_1606_11172# VDD VDD sky130_fd_pr__pfet_01v8 ad=0.0588 pd=0.7 as=0.111 ps=1.37 w=0.42 l=0.15
X160 VDD m2_1606_11172# VOUT VDD sky130_fd_pr__pfet_01v8 ad=0.111 pd=1.37 as=0.0588 ps=0.7 w=0.42 l=0.15
X161 VOUT m2_1606_11172# VDD VDD sky130_fd_pr__pfet_01v8 ad=0.0588 pd=0.7 as=0.111 ps=1.37 w=0.42 l=0.15
X162 VDD m2_1606_11172# VOUT VDD sky130_fd_pr__pfet_01v8 ad=0.111 pd=1.37 as=0.0588 ps=0.7 w=0.42 l=0.15
X163 VOUT m2_1606_11172# VDD VDD sky130_fd_pr__pfet_01v8 ad=0.0588 pd=0.7 as=0.111 ps=1.37 w=0.42 l=0.15
X164 VOUT m2_1606_11172# VDD VDD sky130_fd_pr__pfet_01v8 ad=0.0588 pd=0.7 as=0.111 ps=1.37 w=0.42 l=0.15
X165 VDD m2_1606_11172# VOUT VDD sky130_fd_pr__pfet_01v8 ad=0.111 pd=1.37 as=0.0588 ps=0.7 w=0.42 l=0.15
X166 VOUT m2_1606_11172# VDD VDD sky130_fd_pr__pfet_01v8 ad=0.0588 pd=0.7 as=0.111 ps=1.37 w=0.42 l=0.15
X167 VOUT m2_1606_11172# VDD VDD sky130_fd_pr__pfet_01v8 ad=0.0588 pd=0.7 as=0.111 ps=1.37 w=0.42 l=0.15
X168 VOUT m2_1606_11172# VDD VDD sky130_fd_pr__pfet_01v8 ad=0.0588 pd=0.7 as=0.111 ps=1.37 w=0.42 l=0.15
X169 VDD m2_1606_11172# VOUT VDD sky130_fd_pr__pfet_01v8 ad=0.111 pd=1.37 as=0.0588 ps=0.7 w=0.42 l=0.15
X170 VOUT m2_1606_11172# VDD VDD sky130_fd_pr__pfet_01v8 ad=0.0588 pd=0.7 as=0.111 ps=1.37 w=0.42 l=0.15
X171 VDD m2_1606_11172# VOUT VDD sky130_fd_pr__pfet_01v8 ad=0.111 pd=1.37 as=0.0588 ps=0.7 w=0.42 l=0.15
X172 VOUT m2_1606_11172# VDD VDD sky130_fd_pr__pfet_01v8 ad=0.0588 pd=0.7 as=0.111 ps=1.37 w=0.42 l=0.15
X173 VOUT m2_1606_11172# VDD VDD sky130_fd_pr__pfet_01v8 ad=0.0588 pd=0.7 as=0.111 ps=1.37 w=0.42 l=0.15
X174 VDD m2_1606_11172# VOUT VDD sky130_fd_pr__pfet_01v8 ad=0.111 pd=1.37 as=0.0588 ps=0.7 w=0.42 l=0.15
X175 VOUT m2_1606_11172# VDD VDD sky130_fd_pr__pfet_01v8 ad=0.0588 pd=0.7 as=0.111 ps=1.37 w=0.42 l=0.15
X176 VDD m2_1606_11172# VOUT VDD sky130_fd_pr__pfet_01v8 ad=0.111 pd=1.37 as=0.0588 ps=0.7 w=0.42 l=0.15
X177 VOUT m2_1606_11172# VDD VDD sky130_fd_pr__pfet_01v8 ad=0.0588 pd=0.7 as=0.111 ps=1.37 w=0.42 l=0.15
X178 VDD m2_1606_11172# VOUT VDD sky130_fd_pr__pfet_01v8 ad=0.111 pd=1.37 as=0.0588 ps=0.7 w=0.42 l=0.15
X179 VDD m2_1606_11172# VOUT VDD sky130_fd_pr__pfet_01v8 ad=0.111 pd=1.37 as=0.0588 ps=0.7 w=0.42 l=0.15
X180 VDD m2_1606_11172# VOUT VDD sky130_fd_pr__pfet_01v8 ad=0.111 pd=1.37 as=0.0588 ps=0.7 w=0.42 l=0.15
X181 VOUT m2_1606_11172# VDD VDD sky130_fd_pr__pfet_01v8 ad=0.0588 pd=0.7 as=0.111 ps=1.37 w=0.42 l=0.15
X182 VOUT m2_1606_11172# VDD VDD sky130_fd_pr__pfet_01v8 ad=0.0588 pd=0.7 as=0.111 ps=1.37 w=0.42 l=0.15
X183 VOUT m2_1606_11172# VDD VDD sky130_fd_pr__pfet_01v8 ad=0.0588 pd=0.7 as=0.111 ps=1.37 w=0.42 l=0.15
X184 VOUT m2_1606_11172# VDD VDD sky130_fd_pr__pfet_01v8 ad=0.0588 pd=0.7 as=0.111 ps=1.37 w=0.42 l=0.15
X185 VDD m2_1606_11172# VOUT VDD sky130_fd_pr__pfet_01v8 ad=0.111 pd=1.37 as=0.0588 ps=0.7 w=0.42 l=0.15
X186 VDD m2_1606_11172# VOUT VDD sky130_fd_pr__pfet_01v8 ad=0.111 pd=1.37 as=0.0588 ps=0.7 w=0.42 l=0.15
X187 VDD m2_1606_11172# VOUT VDD sky130_fd_pr__pfet_01v8 ad=0.111 pd=1.37 as=0.0588 ps=0.7 w=0.42 l=0.15
X188 VDD m2_1606_11172# VOUT VDD sky130_fd_pr__pfet_01v8 ad=0.111 pd=1.37 as=0.0588 ps=0.7 w=0.42 l=0.15
X189 VDD m2_1606_11172# VOUT VDD sky130_fd_pr__pfet_01v8 ad=0.111 pd=1.37 as=0.0588 ps=0.7 w=0.42 l=0.15
X190 VDD m2_1606_11172# VOUT VDD sky130_fd_pr__pfet_01v8 ad=0.111 pd=1.37 as=0.0588 ps=0.7 w=0.42 l=0.15
X191 VDD m2_1606_11172# VOUT VDD sky130_fd_pr__pfet_01v8 ad=0.111 pd=1.37 as=0.0588 ps=0.7 w=0.42 l=0.15
X192 VOUT m2_1606_11172# VDD VDD sky130_fd_pr__pfet_01v8 ad=0.0588 pd=0.7 as=0.111 ps=1.37 w=0.42 l=0.15
X193 VOUT m2_1606_11172# VDD VDD sky130_fd_pr__pfet_01v8 ad=0.0588 pd=0.7 as=0.111 ps=1.37 w=0.42 l=0.15
X194 VDD m2_1606_11172# VOUT VDD sky130_fd_pr__pfet_01v8 ad=0.111 pd=1.37 as=0.0588 ps=0.7 w=0.42 l=0.15
X195 VDD m2_1606_11172# VOUT VDD sky130_fd_pr__pfet_01v8 ad=0.111 pd=1.37 as=0.0588 ps=0.7 w=0.42 l=0.15
X196 VOUT m2_1606_11172# VDD VDD sky130_fd_pr__pfet_01v8 ad=0.0588 pd=0.7 as=0.111 ps=1.37 w=0.42 l=0.15
X197 VOUT m2_1606_11172# VDD VDD sky130_fd_pr__pfet_01v8 ad=0.0588 pd=0.7 as=0.111 ps=1.37 w=0.42 l=0.15
X198 VDD m2_402_11172# m2_402_11172# VDD sky130_fd_pr__pfet_01v8 ad=12 pd=148 as=0.353 ps=4.2 w=0.42 l=0.15
X199 m2_402_11172# m2_402_11172# VDD VDD sky130_fd_pr__pfet_01v8 ad=0 pd=0 as=0 ps=0 w=0.42 l=0.15
X200 m2_402_11172# m2_402_11172# VDD VDD sky130_fd_pr__pfet_01v8 ad=0 pd=0 as=0 ps=0 w=0.42 l=0.15
X201 VDD m2_402_11172# m2_402_11172# VDD sky130_fd_pr__pfet_01v8 ad=0 pd=0 as=0 ps=0 w=0.42 l=0.15
X202 VDD m2_402_11172# m2_402_11172# VDD sky130_fd_pr__pfet_01v8 ad=0 pd=0 as=0 ps=0 w=0.42 l=0.15
X203 m2_402_11172# m2_402_11172# VDD VDD sky130_fd_pr__pfet_01v8 ad=0 pd=0 as=0 ps=0 w=0.42 l=0.15
X204 VOUT m2_316_42299# VSS VSS sky130_fd_pr__nfet_01v8 ad=0.0588 pd=0.7 as=0.111 ps=1.37 w=0.42 l=0.15
X205 VOUT m2_316_42299# VSS VSS sky130_fd_pr__nfet_01v8 ad=0.0588 pd=0.7 as=0.111 ps=1.37 w=0.42 l=0.15
X206 VSS m2_316_42299# VOUT VSS sky130_fd_pr__nfet_01v8 ad=0.111 pd=1.37 as=0.0588 ps=0.7 w=0.42 l=0.15
X207 VSS m2_316_42299# VOUT VSS sky130_fd_pr__nfet_01v8 ad=0.111 pd=1.37 as=0.0588 ps=0.7 w=0.42 l=0.15
X208 VOUT m2_316_42299# VSS VSS sky130_fd_pr__nfet_01v8 ad=0.0588 pd=0.7 as=0.111 ps=1.37 w=0.42 l=0.15
X209 VOUT m2_316_42299# VSS VSS sky130_fd_pr__nfet_01v8 ad=0.0588 pd=0.7 as=0.111 ps=1.37 w=0.42 l=0.15
X210 VSS m2_316_42299# VOUT VSS sky130_fd_pr__nfet_01v8 ad=0.111 pd=1.37 as=0.0588 ps=0.7 w=0.42 l=0.15
X211 VSS m2_316_42299# VOUT VSS sky130_fd_pr__nfet_01v8 ad=0.111 pd=1.37 as=0.0588 ps=0.7 w=0.42 l=0.15
X212 VOUT m2_316_42299# VSS VSS sky130_fd_pr__nfet_01v8 ad=0.0588 pd=0.7 as=0.111 ps=1.37 w=0.42 l=0.15
X213 VSS m2_316_42299# VOUT VSS sky130_fd_pr__nfet_01v8 ad=0.111 pd=1.37 as=0.0588 ps=0.7 w=0.42 l=0.15
X214 VSS m2_316_42299# VOUT VSS sky130_fd_pr__nfet_01v8 ad=0.111 pd=1.37 as=0.0588 ps=0.7 w=0.42 l=0.15
X215 VSS m2_316_42299# VOUT VSS sky130_fd_pr__nfet_01v8 ad=0.111 pd=1.37 as=0.0588 ps=0.7 w=0.42 l=0.15
X216 VSS m2_316_42299# VOUT VSS sky130_fd_pr__nfet_01v8 ad=0.111 pd=1.37 as=0.0588 ps=0.7 w=0.42 l=0.15
X217 VSS m2_316_42299# VOUT VSS sky130_fd_pr__nfet_01v8 ad=0.111 pd=1.37 as=0.0588 ps=0.7 w=0.42 l=0.15
X218 VSS m2_316_42299# VOUT VSS sky130_fd_pr__nfet_01v8 ad=0.111 pd=1.37 as=0.0588 ps=0.7 w=0.42 l=0.15
X219 VSS m2_316_42299# VOUT VSS sky130_fd_pr__nfet_01v8 ad=0.111 pd=1.37 as=0.0588 ps=0.7 w=0.42 l=0.15
X220 VOUT m2_316_42299# VSS VSS sky130_fd_pr__nfet_01v8 ad=0.0588 pd=0.7 as=0.111 ps=1.37 w=0.42 l=0.15
X221 VSS m2_316_42299# VOUT VSS sky130_fd_pr__nfet_01v8 ad=0.111 pd=1.37 as=0.0588 ps=0.7 w=0.42 l=0.15
X222 VOUT m2_316_42299# VSS VSS sky130_fd_pr__nfet_01v8 ad=0.0588 pd=0.7 as=0.111 ps=1.37 w=0.42 l=0.15
X223 VOUT m2_316_42299# VSS VSS sky130_fd_pr__nfet_01v8 ad=0.0588 pd=0.7 as=0.111 ps=1.37 w=0.42 l=0.15
X224 VSS m2_316_42299# VOUT VSS sky130_fd_pr__nfet_01v8 ad=0.111 pd=1.37 as=0.0588 ps=0.7 w=0.42 l=0.15
X225 VOUT m2_316_42299# VSS VSS sky130_fd_pr__nfet_01v8 ad=0.0588 pd=0.7 as=0.111 ps=1.37 w=0.42 l=0.15
X226 VOUT m2_316_42299# VSS VSS sky130_fd_pr__nfet_01v8 ad=0.0588 pd=0.7 as=0.111 ps=1.37 w=0.42 l=0.15
X227 VOUT m2_316_42299# VSS VSS sky130_fd_pr__nfet_01v8 ad=0.0588 pd=0.7 as=0.111 ps=1.37 w=0.42 l=0.15
X228 VSS m2_316_42299# VOUT VSS sky130_fd_pr__nfet_01v8 ad=0.111 pd=1.37 as=0.0588 ps=0.7 w=0.42 l=0.15
X229 VSS m2_316_42299# VOUT VSS sky130_fd_pr__nfet_01v8 ad=0.111 pd=1.37 as=0.0588 ps=0.7 w=0.42 l=0.15
X230 VSS m2_316_42299# VOUT VSS sky130_fd_pr__nfet_01v8 ad=0.111 pd=1.37 as=0.0588 ps=0.7 w=0.42 l=0.15
X231 VOUT m2_316_42299# VSS VSS sky130_fd_pr__nfet_01v8 ad=0.0588 pd=0.7 as=0.111 ps=1.37 w=0.42 l=0.15
X232 VSS m2_316_42299# VOUT VSS sky130_fd_pr__nfet_01v8 ad=0.111 pd=1.37 as=0.0588 ps=0.7 w=0.42 l=0.15
X233 VOUT m2_316_42299# VSS VSS sky130_fd_pr__nfet_01v8 ad=0.0588 pd=0.7 as=0.111 ps=1.37 w=0.42 l=0.15
X234 VSS m2_316_42299# VOUT VSS sky130_fd_pr__nfet_01v8 ad=0.111 pd=1.37 as=0.0588 ps=0.7 w=0.42 l=0.15
X235 VOUT m2_316_42299# VSS VSS sky130_fd_pr__nfet_01v8 ad=0.0588 pd=0.7 as=0.111 ps=1.37 w=0.42 l=0.15
X236 VOUT m2_316_42299# VSS VSS sky130_fd_pr__nfet_01v8 ad=0.0588 pd=0.7 as=0.111 ps=1.37 w=0.42 l=0.15
X237 VOUT m2_316_42299# VSS VSS sky130_fd_pr__nfet_01v8 ad=0.0588 pd=0.7 as=0.111 ps=1.37 w=0.42 l=0.15
X238 VOUT m2_316_42299# VSS VSS sky130_fd_pr__nfet_01v8 ad=0.0588 pd=0.7 as=0.111 ps=1.37 w=0.42 l=0.15
X239 VOUT m2_316_42299# VSS VSS sky130_fd_pr__nfet_01v8 ad=0.0588 pd=0.7 as=0.111 ps=1.37 w=0.42 l=0.15
X240 VSS m2_316_42299# VOUT VSS sky130_fd_pr__nfet_01v8 ad=0.111 pd=1.37 as=0.0588 ps=0.7 w=0.42 l=0.15
X241 VSS m2_316_42299# VOUT VSS sky130_fd_pr__nfet_01v8 ad=0.111 pd=1.37 as=0.0588 ps=0.7 w=0.42 l=0.15
X242 VOUT m2_316_42299# VSS VSS sky130_fd_pr__nfet_01v8 ad=0.0588 pd=0.7 as=0.111 ps=1.37 w=0.42 l=0.15
X243 VOUT m2_316_42299# VSS VSS sky130_fd_pr__nfet_01v8 ad=0.0588 pd=0.7 as=0.111 ps=1.37 w=0.42 l=0.15
X244 VOUT m2_316_42299# VSS VSS sky130_fd_pr__nfet_01v8 ad=0.0588 pd=0.7 as=0.111 ps=1.37 w=0.42 l=0.15
X245 VOUT m2_316_42299# VSS VSS sky130_fd_pr__nfet_01v8 ad=0.0588 pd=0.7 as=0.111 ps=1.37 w=0.42 l=0.15
X246 VSS m2_316_42299# VOUT VSS sky130_fd_pr__nfet_01v8 ad=0.111 pd=1.37 as=0.0588 ps=0.7 w=0.42 l=0.15
X247 VSS m2_316_42299# VOUT VSS sky130_fd_pr__nfet_01v8 ad=0.111 pd=1.37 as=0.0588 ps=0.7 w=0.42 l=0.15
X248 VSS m2_316_42299# VOUT VSS sky130_fd_pr__nfet_01v8 ad=0.111 pd=1.37 as=0.0588 ps=0.7 w=0.42 l=0.15
X249 VOUT m2_316_42299# VSS VSS sky130_fd_pr__nfet_01v8 ad=0.0588 pd=0.7 as=0.111 ps=1.37 w=0.42 l=0.15
X250 VOUT m2_316_42299# VSS VSS sky130_fd_pr__nfet_01v8 ad=0.0588 pd=0.7 as=0.111 ps=1.37 w=0.42 l=0.15
X251 VSS m2_316_42299# VOUT VSS sky130_fd_pr__nfet_01v8 ad=0.111 pd=1.37 as=0.0588 ps=0.7 w=0.42 l=0.15
X252 VSS m2_316_42299# VOUT VSS sky130_fd_pr__nfet_01v8 ad=0.111 pd=1.37 as=0.0588 ps=0.7 w=0.42 l=0.15
X253 VOUT m2_316_42299# VSS VSS sky130_fd_pr__nfet_01v8 ad=0.0588 pd=0.7 as=0.111 ps=1.37 w=0.42 l=0.15
X254 VOUT m2_316_42299# VSS VSS sky130_fd_pr__nfet_01v8 ad=0.0588 pd=0.7 as=0.111 ps=1.37 w=0.42 l=0.15
X255 VSS m2_316_42299# VOUT VSS sky130_fd_pr__nfet_01v8 ad=0.111 pd=1.37 as=0.0588 ps=0.7 w=0.42 l=0.15
X256 VSS m2_316_42299# VOUT VSS sky130_fd_pr__nfet_01v8 ad=0.111 pd=1.37 as=0.0588 ps=0.7 w=0.42 l=0.15
X257 VSS m2_316_42299# VOUT VSS sky130_fd_pr__nfet_01v8 ad=0.111 pd=1.37 as=0.0588 ps=0.7 w=0.42 l=0.15
X258 VOUT m2_316_42299# VSS VSS sky130_fd_pr__nfet_01v8 ad=0.0588 pd=0.7 as=0.111 ps=1.37 w=0.42 l=0.15
X259 VSS m2_316_42299# VOUT VSS sky130_fd_pr__nfet_01v8 ad=0.111 pd=1.37 as=0.0588 ps=0.7 w=0.42 l=0.15
X260 VSS m2_316_42299# VOUT VSS sky130_fd_pr__nfet_01v8 ad=0.111 pd=1.37 as=0.0588 ps=0.7 w=0.42 l=0.15
X261 VOUT m2_316_42299# VSS VSS sky130_fd_pr__nfet_01v8 ad=0.0588 pd=0.7 as=0.111 ps=1.37 w=0.42 l=0.15
X262 VOUT m2_316_42299# VSS VSS sky130_fd_pr__nfet_01v8 ad=0.0588 pd=0.7 as=0.111 ps=1.37 w=0.42 l=0.15
X263 VSS m2_316_42299# VOUT VSS sky130_fd_pr__nfet_01v8 ad=0.111 pd=1.37 as=0.0588 ps=0.7 w=0.42 l=0.15
X264 VSS m2_316_42299# VOUT VSS sky130_fd_pr__nfet_01v8 ad=0.111 pd=1.37 as=0.0588 ps=0.7 w=0.42 l=0.15
X265 VSS m2_316_42299# VOUT VSS sky130_fd_pr__nfet_01v8 ad=0.111 pd=1.37 as=0.0588 ps=0.7 w=0.42 l=0.15
X266 VOUT m2_316_42299# VSS VSS sky130_fd_pr__nfet_01v8 ad=0.0588 pd=0.7 as=0.111 ps=1.37 w=0.42 l=0.15
X267 VSS m2_316_42299# VOUT VSS sky130_fd_pr__nfet_01v8 ad=0.111 pd=1.37 as=0.0588 ps=0.7 w=0.42 l=0.15
X268 VOUT m2_316_42299# VSS VSS sky130_fd_pr__nfet_01v8 ad=0.0588 pd=0.7 as=0.111 ps=1.37 w=0.42 l=0.15
X269 VOUT m2_316_42299# VSS VSS sky130_fd_pr__nfet_01v8 ad=0.0588 pd=0.7 as=0.111 ps=1.37 w=0.42 l=0.15
X270 VSS m2_316_42299# VOUT VSS sky130_fd_pr__nfet_01v8 ad=0.111 pd=1.37 as=0.0588 ps=0.7 w=0.42 l=0.15
X271 VOUT m2_316_42299# VSS VSS sky130_fd_pr__nfet_01v8 ad=0.0588 pd=0.7 as=0.111 ps=1.37 w=0.42 l=0.15
X272 VOUT m2_316_42299# VSS VSS sky130_fd_pr__nfet_01v8 ad=0.0588 pd=0.7 as=0.111 ps=1.37 w=0.42 l=0.15
X273 VSS m2_316_42299# VOUT VSS sky130_fd_pr__nfet_01v8 ad=0.111 pd=1.37 as=0.0588 ps=0.7 w=0.42 l=0.15
X274 VSS m2_316_42299# VOUT VSS sky130_fd_pr__nfet_01v8 ad=0.111 pd=1.37 as=0.0588 ps=0.7 w=0.42 l=0.15