* NGSPICE file created from controller.ext - technology: sky130A

.subckt sky130_ef_sc_hd__decap_12 VGND VPWR VPB VNB
X0 VPWR VGND VPWR VPB sky130_fd_pr__pfet_01v8_hvt ad=0.2262 pd=2.26 as=0 ps=0 w=0.87 l=4.73
X1 VGND VPWR VGND VNB sky130_fd_pr__nfet_01v8 ad=0.143 pd=1.62 as=0 ps=0 w=0.55 l=4.73
.ends

.subckt sky130_fd_sc_hd__inv_2 VPB VNB VPWR VGND Y A
X0 Y A VPWR VPB sky130_fd_pr__pfet_01v8_hvt ad=0.135 pd=1.27 as=0.26 ps=2.52 w=1 l=0.15
X1 VGND A Y VNB sky130_fd_pr__nfet_01v8 ad=0.169 pd=1.82 as=0.08775 ps=0.92 w=0.65 l=0.15
X2 Y A VGND VNB sky130_fd_pr__nfet_01v8 ad=0.08775 pd=0.92 as=0.169 ps=1.82 w=0.65 l=0.15
X3 VPWR A Y VPB sky130_fd_pr__pfet_01v8_hvt ad=0.26 pd=2.52 as=0.135 ps=1.27 w=1 l=0.15
.ends

.subckt sky130_fd_sc_hd__a31o_1 VPB VNB X A3 A2 A1 B1 VGND VPWR
X0 VPWR a_80_21# X VPB sky130_fd_pr__pfet_01v8_hvt ad=0.1725 pd=1.345 as=0.265 ps=2.53 w=1 l=0.15
X1 a_209_297# A3 VPWR VPB sky130_fd_pr__pfet_01v8_hvt ad=0.16 pd=1.32 as=0.1725 ps=1.345 w=1 l=0.15
X2 a_303_47# A2 a_209_47# VNB sky130_fd_pr__nfet_01v8 ad=0.10725 pd=0.98 as=0.104 ps=0.97 w=0.65 l=0.15
X3 a_209_47# A3 VGND VNB sky130_fd_pr__nfet_01v8 ad=0.104 pd=0.97 as=0.112125 ps=0.995 w=0.65 l=0.15
X4 VGND a_80_21# X VNB sky130_fd_pr__nfet_01v8 ad=0.112125 pd=0.995 as=0.17225 ps=1.83 w=0.65 l=0.15
X5 VGND B1 a_80_21# VNB sky130_fd_pr__nfet_01v8 ad=0.208 pd=1.94 as=0.10725 ps=0.98 w=0.65 l=0.15
X6 a_80_21# A1 a_303_47# VNB sky130_fd_pr__nfet_01v8 ad=0.10725 pd=0.98 as=0.10725 ps=0.98 w=0.65 l=0.15
X7 VPWR A2 a_209_297# VPB sky130_fd_pr__pfet_01v8_hvt ad=0.165 pd=1.33 as=0.16 ps=1.32 w=1 l=0.15
X8 a_80_21# B1 a_209_297# VPB sky130_fd_pr__pfet_01v8_hvt ad=0.32 pd=2.64 as=0.165 ps=1.33 w=1 l=0.15
X9 a_209_297# A1 VPWR VPB sky130_fd_pr__pfet_01v8_hvt ad=0.165 pd=1.33 as=0.165 ps=1.33 w=1 l=0.15
.ends

.subckt sky130_fd_sc_hd__buf_2 VPWR VGND X A VPB VNB
X0 VPWR a_27_47# X VPB sky130_fd_pr__pfet_01v8_hvt ad=0.265 pd=2.53 as=0.135 ps=1.27 w=1 l=0.15
X1 X a_27_47# VPWR VPB sky130_fd_pr__pfet_01v8_hvt ad=0.135 pd=1.27 as=0.149 ps=1.325 w=1 l=0.15
X2 VPWR A a_27_47# VPB sky130_fd_pr__pfet_01v8_hvt ad=0.149 pd=1.325 as=0.1664 ps=1.8 w=0.64 l=0.15
X3 X a_27_47# VGND VNB sky130_fd_pr__nfet_01v8 ad=0.08775 pd=0.92 as=0.097 ps=0.975 w=0.65 l=0.15
X4 VGND a_27_47# X VNB sky130_fd_pr__nfet_01v8 ad=0.17225 pd=1.83 as=0.08775 ps=0.92 w=0.65 l=0.15
X5 VGND A a_27_47# VNB sky130_fd_pr__nfet_01v8 ad=0.097 pd=0.975 as=0.1092 ps=1.36 w=0.42 l=0.15
.ends

.subckt sky130_fd_sc_hd__decap_3 VPWR VGND VPB VNB
X0 VPWR VGND VPWR VPB sky130_fd_pr__pfet_01v8_hvt ad=0.2262 pd=2.26 as=0 ps=0 w=0.87 l=0.59
X1 VGND VPWR VGND VNB sky130_fd_pr__nfet_01v8 ad=0.143 pd=1.62 as=0 ps=0 w=0.55 l=0.59
.ends

.subckt sky130_fd_sc_hd__decap_4 VGND VPWR VPB VNB
X0 VPWR VGND VPWR VPB sky130_fd_pr__pfet_01v8_hvt ad=0.2262 pd=2.26 as=0 ps=0 w=0.87 l=1.05
X1 VGND VPWR VGND VNB sky130_fd_pr__nfet_01v8 ad=0.143 pd=1.62 as=0 ps=0 w=0.55 l=1.05
.ends

.subckt sky130_fd_sc_hd__clkbuf_16 VNB VPB VGND VPWR A X
X0 VPWR A a_110_47# VPB sky130_fd_pr__pfet_01v8_hvt ad=0.14 pd=1.28 as=0.14 ps=1.28 w=1 l=0.15
X1 VPWR a_110_47# X VPB sky130_fd_pr__pfet_01v8_hvt ad=0.14 pd=1.28 as=0.14 ps=1.28 w=1 l=0.15
X2 X a_110_47# VPWR VPB sky130_fd_pr__pfet_01v8_hvt ad=0.14 pd=1.28 as=0.14 ps=1.28 w=1 l=0.15
X3 X a_110_47# VPWR VPB sky130_fd_pr__pfet_01v8_hvt ad=0.14 pd=1.28 as=0.14 ps=1.28 w=1 l=0.15
X4 VPWR a_110_47# X VPB sky130_fd_pr__pfet_01v8_hvt ad=0.14 pd=1.28 as=0.14 ps=1.28 w=1 l=0.15
X5 VPWR a_110_47# X VPB sky130_fd_pr__pfet_01v8_hvt ad=0.265 pd=2.53 as=0.14 ps=1.28 w=1 l=0.15
X6 a_110_47# A VPWR VPB sky130_fd_pr__pfet_01v8_hvt ad=0.14 pd=1.28 as=0.265 ps=2.53 w=1 l=0.15
X7 a_110_47# A VGND VNB sky130_fd_pr__nfet_01v8 ad=0.0588 pd=0.7 as=0.0588 ps=0.7 w=0.42 l=0.15
X8 VGND a_110_47# X VNB sky130_fd_pr__nfet_01v8 ad=0.0588 pd=0.7 as=0.0588 ps=0.7 w=0.42 l=0.15
X9 X a_110_47# VGND VNB sky130_fd_pr__nfet_01v8 ad=0.0588 pd=0.7 as=0.0588 ps=0.7 w=0.42 l=0.15
X10 VGND a_110_47# X VNB sky130_fd_pr__nfet_01v8 ad=0.0588 pd=0.7 as=0.0588 ps=0.7 w=0.42 l=0.15
X11 a_110_47# A VPWR VPB sky130_fd_pr__pfet_01v8_hvt ad=0.14 pd=1.28 as=0.14 ps=1.28 w=1 l=0.15
X12 VGND A a_110_47# VNB sky130_fd_pr__nfet_01v8 ad=0.0588 pd=0.7 as=0.0588 ps=0.7 w=0.42 l=0.15
X13 VGND a_110_47# X VNB sky130_fd_pr__nfet_01v8 ad=0.05775 pd=0.695 as=0.0588 ps=0.7 w=0.42 l=0.15
X14 VPWR a_110_47# X VPB sky130_fd_pr__pfet_01v8_hvt ad=0.14 pd=1.28 as=0.14 ps=1.28 w=1 l=0.15
X15 X a_110_47# VPWR VPB sky130_fd_pr__pfet_01v8_hvt ad=0.14 pd=1.28 as=0.14 ps=1.28 w=1 l=0.15
X16 VGND A a_110_47# VNB sky130_fd_pr__nfet_01v8 ad=0.0588 pd=0.7 as=0.0588 ps=0.7 w=0.42 l=0.15
X17 VGND a_110_47# X VNB sky130_fd_pr__nfet_01v8 ad=0.1113 pd=1.37 as=0.0588 ps=0.7 w=0.42 l=0.15
X18 VPWR a_110_47# X VPB sky130_fd_pr__pfet_01v8_hvt ad=0.1375 pd=1.275 as=0.14 ps=1.28 w=1 l=0.15
X19 VGND a_110_47# X VNB sky130_fd_pr__nfet_01v8 ad=0.0588 pd=0.7 as=0.0588 ps=0.7 w=0.42 l=0.15
X20 X a_110_47# VPWR VPB sky130_fd_pr__pfet_01v8_hvt ad=0.14 pd=1.28 as=0.1375 ps=1.275 w=1 l=0.15
X21 a_110_47# A VGND VNB sky130_fd_pr__nfet_01v8 ad=0.0588 pd=0.7 as=0.1113 ps=1.37 w=0.42 l=0.15
X22 VPWR A a_110_47# VPB sky130_fd_pr__pfet_01v8_hvt ad=0.14 pd=1.28 as=0.14 ps=1.28 w=1 l=0.15
X23 VPWR a_110_47# X VPB sky130_fd_pr__pfet_01v8_hvt ad=0.14 pd=1.28 as=0.14 ps=1.28 w=1 l=0.15
X24 VPWR a_110_47# X VPB sky130_fd_pr__pfet_01v8_hvt ad=0.14 pd=1.28 as=0.14 ps=1.28 w=1 l=0.15
X25 VGND a_110_47# X VNB sky130_fd_pr__nfet_01v8 ad=0.0588 pd=0.7 as=0.0588 ps=0.7 w=0.42 l=0.15
X26 X a_110_47# VPWR VPB sky130_fd_pr__pfet_01v8_hvt ad=0.14 pd=1.28 as=0.14 ps=1.28 w=1 l=0.15
X27 VGND a_110_47# X VNB sky130_fd_pr__nfet_01v8 ad=0.0588 pd=0.7 as=0.0588 ps=0.7 w=0.42 l=0.15
X28 VGND a_110_47# X VNB sky130_fd_pr__nfet_01v8 ad=0.0588 pd=0.7 as=0.0588 ps=0.7 w=0.42 l=0.15
X29 X a_110_47# VGND VNB sky130_fd_pr__nfet_01v8 ad=0.0588 pd=0.7 as=0.0588 ps=0.7 w=0.42 l=0.15
X30 X a_110_47# VPWR VPB sky130_fd_pr__pfet_01v8_hvt ad=0.14 pd=1.28 as=0.14 ps=1.28 w=1 l=0.15
X31 X a_110_47# VPWR VPB sky130_fd_pr__pfet_01v8_hvt ad=0.14 pd=1.28 as=0.14 ps=1.28 w=1 l=0.15
X32 X a_110_47# VGND VNB sky130_fd_pr__nfet_01v8 ad=0.0588 pd=0.7 as=0.0588 ps=0.7 w=0.42 l=0.15
X33 VPWR a_110_47# X VPB sky130_fd_pr__pfet_01v8_hvt ad=0.14 pd=1.28 as=0.14 ps=1.28 w=1 l=0.15
X34 X a_110_47# VPWR VPB sky130_fd_pr__pfet_01v8_hvt ad=0.14 pd=1.28 as=0.14 ps=1.28 w=1 l=0.15
X35 X a_110_47# VGND VNB sky130_fd_pr__nfet_01v8 ad=0.0588 pd=0.7 as=0.0588 ps=0.7 w=0.42 l=0.15
X36 X a_110_47# VGND VNB sky130_fd_pr__nfet_01v8 ad=0.0588 pd=0.7 as=0.0588 ps=0.7 w=0.42 l=0.15
X37 X a_110_47# VGND VNB sky130_fd_pr__nfet_01v8 ad=0.0588 pd=0.7 as=0.0588 ps=0.7 w=0.42 l=0.15
X38 X a_110_47# VGND VNB sky130_fd_pr__nfet_01v8 ad=0.0588 pd=0.7 as=0.0588 ps=0.7 w=0.42 l=0.15
X39 X a_110_47# VGND VNB sky130_fd_pr__nfet_01v8 ad=0.0588 pd=0.7 as=0.05775 ps=0.695 w=0.42 l=0.15
.ends

.subckt sky130_fd_sc_hd__nand2_1 VPB VNB VGND VPWR A Y B
X0 VPWR A Y VPB sky130_fd_pr__pfet_01v8_hvt ad=0.26 pd=2.52 as=0.135 ps=1.27 w=1 l=0.15
X1 Y A a_113_47# VNB sky130_fd_pr__nfet_01v8 ad=0.169 pd=1.82 as=0.08775 ps=0.92 w=0.65 l=0.15
X2 a_113_47# B VGND VNB sky130_fd_pr__nfet_01v8 ad=0.08775 pd=0.92 as=0.169 ps=1.82 w=0.65 l=0.15
X3 Y B VPWR VPB sky130_fd_pr__pfet_01v8_hvt ad=0.135 pd=1.27 as=0.26 ps=2.52 w=1 l=0.15
.ends

.subckt sky130_fd_sc_hd__decap_6 VPWR VGND VPB VNB
X0 VPWR VGND VPWR VPB sky130_fd_pr__pfet_01v8_hvt ad=0.2262 pd=2.26 as=0 ps=0 w=0.87 l=1.97
X1 VGND VPWR VGND VNB sky130_fd_pr__nfet_01v8 ad=0.143 pd=1.62 as=0 ps=0 w=0.55 l=1.97
.ends

.subckt sky130_fd_sc_hd__a21o_1 VPWR VGND VPB VNB A2 A1 B1 X
X0 a_81_21# B1 VGND VNB sky130_fd_pr__nfet_01v8 ad=0.089375 pd=0.925 as=0.25675 ps=1.44 w=0.65 l=0.15
X1 a_299_297# B1 a_81_21# VPB sky130_fd_pr__pfet_01v8_hvt ad=0.1375 pd=1.275 as=0.26 ps=2.52 w=1 l=0.15
X2 VPWR a_81_21# X VPB sky130_fd_pr__pfet_01v8_hvt ad=0.26 pd=2.52 as=0.26 ps=2.52 w=1 l=0.15
X3 VPWR A1 a_299_297# VPB sky130_fd_pr__pfet_01v8_hvt ad=0.14 pd=1.28 as=0.1375 ps=1.275 w=1 l=0.15
X4 VGND a_81_21# X VNB sky130_fd_pr__nfet_01v8 ad=0.25675 pd=1.44 as=0.169 ps=1.82 w=0.65 l=0.15
X5 VGND A2 a_384_47# VNB sky130_fd_pr__nfet_01v8 ad=0.17225 pd=1.83 as=0.091 ps=0.93 w=0.65 l=0.15
X6 a_299_297# A2 VPWR VPB sky130_fd_pr__pfet_01v8_hvt ad=0.265 pd=2.53 as=0.14 ps=1.28 w=1 l=0.15
X7 a_384_47# A1 a_81_21# VNB sky130_fd_pr__nfet_01v8 ad=0.091 pd=0.93 as=0.089375 ps=0.925 w=0.65 l=0.15
.ends

.subckt sky130_fd_sc_hd__o2bb2a_1 VNB VPB VPWR VGND X A1_N A2_N B2 B1
X0 a_206_369# A1_N VPWR VPB sky130_fd_pr__pfet_01v8_hvt ad=0.129 pd=1.18 as=0.14575 ps=1.335 w=0.42 l=0.15
X1 a_206_369# A2_N a_205_47# VNB sky130_fd_pr__nfet_01v8 ad=0.1092 pd=1.36 as=0.06615 ps=0.735 w=0.42 l=0.15
X2 VGND B2 a_489_47# VNB sky130_fd_pr__nfet_01v8 ad=0.0567 pd=0.69 as=0.0567 ps=0.69 w=0.42 l=0.15
X3 a_585_369# B2 a_76_199# VPB sky130_fd_pr__pfet_01v8_hvt ad=0.0441 pd=0.63 as=0.0672 ps=0.74 w=0.42 l=0.15
X4 a_489_47# a_206_369# a_76_199# VNB sky130_fd_pr__nfet_01v8 ad=0.0567 pd=0.69 as=0.1092 ps=1.36 w=0.42 l=0.15
X5 a_489_47# B1 VGND VNB sky130_fd_pr__nfet_01v8 ad=0.1092 pd=1.36 as=0.0567 ps=0.69 w=0.42 l=0.15
X6 VPWR A2_N a_206_369# VPB sky130_fd_pr__pfet_01v8_hvt ad=0.20925 pd=1.345 as=0.129 ps=1.18 w=0.42 l=0.15
X7 a_76_199# a_206_369# VPWR VPB sky130_fd_pr__pfet_01v8_hvt ad=0.0672 pd=0.74 as=0.20925 ps=1.345 w=0.42 l=0.15
X8 a_205_47# A1_N VGND VNB sky130_fd_pr__nfet_01v8 ad=0.06615 pd=0.735 as=0.098625 ps=0.98 w=0.42 l=0.15
X9 VPWR a_76_199# X VPB sky130_fd_pr__pfet_01v8_hvt ad=0.14575 pd=1.335 as=0.26 ps=2.52 w=1 l=0.15
X10 VPWR B1 a_585_369# VPB sky130_fd_pr__pfet_01v8_hvt ad=0.1092 pd=1.36 as=0.0441 ps=0.63 w=0.42 l=0.15
X11 VGND a_76_199# X VNB sky130_fd_pr__nfet_01v8 ad=0.098625 pd=0.98 as=0.169 ps=1.82 w=0.65 l=0.15
.ends

.subckt sky130_fd_sc_hd__decap_8 VPWR VGND VPB VNB
X0 VPWR VGND VPWR VPB sky130_fd_pr__pfet_01v8_hvt ad=0.2262 pd=2.26 as=0 ps=0 w=0.87 l=2.89
X1 VGND VPWR VGND VNB sky130_fd_pr__nfet_01v8 ad=0.143 pd=1.62 as=0 ps=0 w=0.55 l=2.89
.ends

.subckt sky130_fd_sc_hd__clkbuf_4 VGND VPWR A X VPB VNB
X0 VPWR A a_27_47# VPB sky130_fd_pr__pfet_01v8_hvt ad=0.165 pd=1.33 as=0.265 ps=2.53 w=1 l=0.15
X1 VGND a_27_47# X VNB sky130_fd_pr__nfet_01v8 ad=0.1218 pd=1.42 as=0.0588 ps=0.7 w=0.42 l=0.15
X2 VGND a_27_47# X VNB sky130_fd_pr__nfet_01v8 ad=0.0588 pd=0.7 as=0.0588 ps=0.7 w=0.42 l=0.15
X3 X a_27_47# VPWR VPB sky130_fd_pr__pfet_01v8_hvt ad=0.14 pd=1.28 as=0.14 ps=1.28 w=1 l=0.15
X4 X a_27_47# VGND VNB sky130_fd_pr__nfet_01v8 ad=0.0588 pd=0.7 as=0.0588 ps=0.7 w=0.42 l=0.15
X5 VGND A a_27_47# VNB sky130_fd_pr__nfet_01v8 ad=0.07035 pd=0.755 as=0.1113 ps=1.37 w=0.42 l=0.15
X6 VPWR a_27_47# X VPB sky130_fd_pr__pfet_01v8_hvt ad=0.3 pd=2.6 as=0.14 ps=1.28 w=1 l=0.15
X7 X a_27_47# VGND VNB sky130_fd_pr__nfet_01v8 ad=0.0588 pd=0.7 as=0.07035 ps=0.755 w=0.42 l=0.15
X8 X a_27_47# VPWR VPB sky130_fd_pr__pfet_01v8_hvt ad=0.14 pd=1.28 as=0.165 ps=1.33 w=1 l=0.15
X9 VPWR a_27_47# X VPB sky130_fd_pr__pfet_01v8_hvt ad=0.14 pd=1.28 as=0.14 ps=1.28 w=1 l=0.15
.ends

.subckt sky130_fd_sc_hd__xor2_1 VNB VPB VPWR VGND A X B
X0 X a_35_297# a_285_297# VPB sky130_fd_pr__pfet_01v8_hvt ad=0.3 pd=2.6 as=0.26 ps=2.52 w=1 l=0.15
X1 X B a_285_47# VNB sky130_fd_pr__nfet_01v8 ad=0.25025 pd=1.42 as=0.08775 ps=0.92 w=0.65 l=0.15
X2 a_35_297# B VGND VNB sky130_fd_pr__nfet_01v8 ad=0.08775 pd=0.92 as=0.169 ps=1.82 w=0.65 l=0.15
X3 a_117_297# B a_35_297# VPB sky130_fd_pr__pfet_01v8_hvt ad=0.135 pd=1.27 as=0.26 ps=2.52 w=1 l=0.15
X4 VPWR B a_285_297# VPB sky130_fd_pr__pfet_01v8_hvt ad=0.26 pd=2.52 as=0.135 ps=1.27 w=1 l=0.15
X5 VGND A a_35_297# VNB sky130_fd_pr__nfet_01v8 ad=0.08775 pd=0.92 as=0.08775 ps=0.92 w=0.65 l=0.15
X6 VGND a_35_297# X VNB sky130_fd_pr__nfet_01v8 ad=0.208 pd=1.94 as=0.25025 ps=1.42 w=0.65 l=0.15
X7 a_285_297# A VPWR VPB sky130_fd_pr__pfet_01v8_hvt ad=0.135 pd=1.27 as=0.135 ps=1.27 w=1 l=0.15
X8 VPWR A a_117_297# VPB sky130_fd_pr__pfet_01v8_hvt ad=0.135 pd=1.27 as=0.135 ps=1.27 w=1 l=0.15
X9 a_285_47# A VGND VNB sky130_fd_pr__nfet_01v8 ad=0.08775 pd=0.92 as=0.08775 ps=0.92 w=0.65 l=0.15
.ends

.subckt sky130_fd_sc_hd__and3_1 VGND VPWR X B A C VPB VNB
X0 VPWR A a_27_47# VPB sky130_fd_pr__pfet_01v8_hvt ad=0.0567 pd=0.69 as=0.1092 ps=1.36 w=0.42 l=0.15
X1 VPWR C a_27_47# VPB sky130_fd_pr__pfet_01v8_hvt ad=0.142225 pd=1.335 as=0.06615 ps=0.735 w=0.42 l=0.15
X2 a_181_47# B a_109_47# VNB sky130_fd_pr__nfet_01v8 ad=0.0441 pd=0.63 as=0.0441 ps=0.63 w=0.42 l=0.15
X3 VGND C a_181_47# VNB sky130_fd_pr__nfet_01v8 ad=0.13165 pd=1.14 as=0.0441 ps=0.63 w=0.42 l=0.15
X4 a_27_47# B VPWR VPB sky130_fd_pr__pfet_01v8_hvt ad=0.06615 pd=0.735 as=0.0567 ps=0.69 w=0.42 l=0.15
X5 X a_27_47# VPWR VPB sky130_fd_pr__pfet_01v8_hvt ad=0.26 pd=2.52 as=0.142225 ps=1.335 w=1 l=0.15
X6 X a_27_47# VGND VNB sky130_fd_pr__nfet_01v8 ad=0.169 pd=1.82 as=0.13165 ps=1.14 w=0.65 l=0.15
X7 a_109_47# A a_27_47# VNB sky130_fd_pr__nfet_01v8 ad=0.0441 pd=0.63 as=0.1092 ps=1.36 w=0.42 l=0.15
.ends

.subckt sky130_fd_sc_hd__or2_1 VPB VNB VGND VPWR X A B
X0 VGND A a_68_297# VNB sky130_fd_pr__nfet_01v8 ad=0.10025 pd=0.985 as=0.0567 ps=0.69 w=0.42 l=0.15
X1 a_68_297# B VGND VNB sky130_fd_pr__nfet_01v8 ad=0.0567 pd=0.69 as=0.1092 ps=1.36 w=0.42 l=0.15
X2 X a_68_297# VGND VNB sky130_fd_pr__nfet_01v8 ad=0.169 pd=1.82 as=0.10025 ps=0.985 w=0.65 l=0.15
X3 VPWR A a_150_297# VPB sky130_fd_pr__pfet_01v8_hvt ad=0.14575 pd=1.335 as=0.0441 ps=0.63 w=0.42 l=0.15
X4 X a_68_297# VPWR VPB sky130_fd_pr__pfet_01v8_hvt ad=0.34 pd=2.68 as=0.14575 ps=1.335 w=1 l=0.15
X5 a_150_297# B a_68_297# VPB sky130_fd_pr__pfet_01v8_hvt ad=0.0441 pd=0.63 as=0.1092 ps=1.36 w=0.42 l=0.15
.ends

.subckt sky130_fd_sc_hd__a21oi_1 VPWR VGND VPB VNB A2 A1 B1 Y
X0 a_199_47# A1 Y VNB sky130_fd_pr__nfet_01v8 ad=0.095875 pd=0.945 as=0.091 ps=0.93 w=0.65 l=0.15
X1 a_113_297# A2 VPWR VPB sky130_fd_pr__pfet_01v8_hvt ad=0.265 pd=2.53 as=0.1475 ps=1.295 w=1 l=0.15
X2 Y B1 VGND VNB sky130_fd_pr__nfet_01v8 ad=0.091 pd=0.93 as=0.17225 ps=1.83 w=0.65 l=0.15
X3 VPWR A1 a_113_297# VPB sky130_fd_pr__pfet_01v8_hvt ad=0.1475 pd=1.295 as=0.14 ps=1.28 w=1 l=0.15
X4 a_113_297# B1 Y VPB sky130_fd_pr__pfet_01v8_hvt ad=0.14 pd=1.28 as=0.265 ps=2.53 w=1 l=0.15
X5 VGND A2 a_199_47# VNB sky130_fd_pr__nfet_01v8 ad=0.17225 pd=1.83 as=0.095875 ps=0.945 w=0.65 l=0.15
.ends

.subckt sky130_fd_sc_hd__and2_1 VPWR VGND X B A VPB VNB
X0 VPWR B a_59_75# VPB sky130_fd_pr__pfet_01v8_hvt ad=0.16655 pd=1.39 as=0.0567 ps=0.69 w=0.42 l=0.15
X1 X a_59_75# VPWR VPB sky130_fd_pr__pfet_01v8_hvt ad=0.475 pd=2.95 as=0.16655 ps=1.39 w=1 l=0.15
X2 VGND B a_145_75# VNB sky130_fd_pr__nfet_01v8 ad=0.1118 pd=1.04 as=0.0567 ps=0.69 w=0.42 l=0.15
X3 a_59_75# A VPWR VPB sky130_fd_pr__pfet_01v8_hvt ad=0.0567 pd=0.69 as=0.1176 ps=1.4 w=0.42 l=0.15
X4 X a_59_75# VGND VNB sky130_fd_pr__nfet_01v8 ad=0.182 pd=1.86 as=0.1118 ps=1.04 w=0.65 l=0.15
X5 a_145_75# A a_59_75# VNB sky130_fd_pr__nfet_01v8 ad=0.0567 pd=0.69 as=0.1176 ps=1.4 w=0.42 l=0.15
.ends

.subckt sky130_fd_sc_hd__o21ai_1 VGND VPWR A2 B1 Y A1 VPB VNB
X0 Y A2 a_109_297# VPB sky130_fd_pr__pfet_01v8_hvt ad=0.174 pd=1.39 as=0.105 ps=1.21 w=1 l=0.15
X1 VPWR B1 Y VPB sky130_fd_pr__pfet_01v8_hvt ad=0.182 pd=1.92 as=0.174 ps=1.39 w=0.7 l=0.15
X2 a_27_47# A2 VGND VNB sky130_fd_pr__nfet_01v8 ad=0.08775 pd=0.92 as=0.10725 ps=0.98 w=0.65 l=0.15
X3 Y B1 a_27_47# VNB sky130_fd_pr__nfet_01v8 ad=0.169 pd=1.82 as=0.08775 ps=0.92 w=0.65 l=0.15
X4 a_109_297# A1 VPWR VPB sky130_fd_pr__pfet_01v8_hvt ad=0.105 pd=1.21 as=0.26 ps=2.52 w=1 l=0.15
X5 VGND A1 a_27_47# VNB sky130_fd_pr__nfet_01v8 ad=0.10725 pd=0.98 as=0.169 ps=1.82 w=0.65 l=0.15
.ends

.subckt sky130_fd_sc_hd__nand2b_2 VNB VPB VGND VPWR A_N Y B
X0 Y B VPWR VPB sky130_fd_pr__pfet_01v8_hvt ad=0.135 pd=1.27 as=0.335 ps=1.67 w=1 l=0.15
X1 VGND A_N a_27_93# VNB sky130_fd_pr__nfet_01v8 ad=0.194 pd=1.95 as=0.1092 ps=1.36 w=0.42 l=0.15
X2 VGND B a_229_47# VNB sky130_fd_pr__nfet_01v8 ad=0.08775 pd=0.92 as=0.08775 ps=0.92 w=0.65 l=0.15
X3 Y a_27_93# a_229_47# VNB sky130_fd_pr__nfet_01v8 ad=0.08775 pd=0.92 as=0.169 ps=1.82 w=0.65 l=0.15
X4 a_229_47# a_27_93# Y VNB sky130_fd_pr__nfet_01v8 ad=0.08775 pd=0.92 as=0.08775 ps=0.92 w=0.65 l=0.15
X5 Y a_27_93# VPWR VPB sky130_fd_pr__pfet_01v8_hvt ad=0.165 pd=1.33 as=0.1468 ps=1.34 w=1 l=0.15
X6 VPWR a_27_93# Y VPB sky130_fd_pr__pfet_01v8_hvt ad=0.335 pd=1.67 as=0.165 ps=1.33 w=1 l=0.15
X7 VPWR B Y VPB sky130_fd_pr__pfet_01v8_hvt ad=0.275 pd=2.55 as=0.135 ps=1.27 w=1 l=0.15
X8 a_229_47# B VGND VNB sky130_fd_pr__nfet_01v8 ad=0.169 pd=1.82 as=0.08775 ps=0.92 w=0.65 l=0.15
X9 VPWR A_N a_27_93# VPB sky130_fd_pr__pfet_01v8_hvt ad=0.1468 pd=1.34 as=0.1092 ps=1.36 w=0.42 l=0.15
.ends

.subckt sky130_fd_sc_hd__buf_4 VPWR VGND X A VPB VNB
X0 VPWR a_27_47# X VPB sky130_fd_pr__pfet_01v8_hvt ad=0.26 pd=2.52 as=0.135 ps=1.27 w=1 l=0.15
X1 X a_27_47# VPWR VPB sky130_fd_pr__pfet_01v8_hvt ad=0.135 pd=1.27 as=0.135 ps=1.27 w=1 l=0.15
X2 VPWR a_27_47# X VPB sky130_fd_pr__pfet_01v8_hvt ad=0.135 pd=1.27 as=0.135 ps=1.27 w=1 l=0.15
X3 X a_27_47# VPWR VPB sky130_fd_pr__pfet_01v8_hvt ad=0.135 pd=1.27 as=0.135 ps=1.27 w=1 l=0.15
X4 X a_27_47# VGND VNB sky130_fd_pr__nfet_01v8 ad=0.08775 pd=0.92 as=0.08775 ps=0.92 w=0.65 l=0.15
X5 X a_27_47# VGND VNB sky130_fd_pr__nfet_01v8 ad=0.08775 pd=0.92 as=0.08775 ps=0.92 w=0.65 l=0.15
X6 VGND a_27_47# X VNB sky130_fd_pr__nfet_01v8 ad=0.08775 pd=0.92 as=0.08775 ps=0.92 w=0.65 l=0.15
X7 VGND a_27_47# X VNB sky130_fd_pr__nfet_01v8 ad=0.169 pd=1.82 as=0.08775 ps=0.92 w=0.65 l=0.15
X8 VPWR A a_27_47# VPB sky130_fd_pr__pfet_01v8_hvt ad=0.135 pd=1.27 as=0.26 ps=2.52 w=1 l=0.15
X9 VGND A a_27_47# VNB sky130_fd_pr__nfet_01v8 ad=0.08775 pd=0.92 as=0.169 ps=1.82 w=0.65 l=0.15
.ends

.subckt sky130_fd_sc_hd__or3b_1 VGND VPWR VPB VNB B C_N A X
X0 a_109_93# C_N VGND VNB sky130_fd_pr__nfet_01v8 ad=0.1092 pd=1.36 as=0.1092 ps=1.36 w=0.42 l=0.15
X1 a_215_53# B VGND VNB sky130_fd_pr__nfet_01v8 ad=0.0567 pd=0.69 as=0.0567 ps=0.69 w=0.42 l=0.15
X2 VGND a_109_93# a_215_53# VNB sky130_fd_pr__nfet_01v8 ad=0.0567 pd=0.69 as=0.1092 ps=1.36 w=0.42 l=0.15
X3 VGND A a_215_53# VNB sky130_fd_pr__nfet_01v8 ad=0.10025 pd=0.985 as=0.0567 ps=0.69 w=0.42 l=0.15
X4 VPWR A a_369_297# VPB sky130_fd_pr__pfet_01v8_hvt ad=0.14825 pd=1.34 as=0.06825 ps=0.745 w=0.42 l=0.15
X5 a_369_297# B a_297_297# VPB sky130_fd_pr__pfet_01v8_hvt ad=0.06825 pd=0.745 as=0.0441 ps=0.63 w=0.42 l=0.15
X6 X a_215_53# VPWR VPB sky130_fd_pr__pfet_01v8_hvt ad=0.275 pd=2.55 as=0.14825 ps=1.34 w=1 l=0.15
X7 a_297_297# a_109_93# a_215_53# VPB sky130_fd_pr__pfet_01v8_hvt ad=0.0441 pd=0.63 as=0.1092 ps=1.36 w=0.42 l=0.15
X8 a_109_93# C_N VPWR VPB sky130_fd_pr__pfet_01v8_hvt ad=0.1092 pd=1.36 as=0.1092 ps=1.36 w=0.42 l=0.15
X9 X a_215_53# VGND VNB sky130_fd_pr__nfet_01v8 ad=0.17875 pd=1.85 as=0.10025 ps=0.985 w=0.65 l=0.15
.ends

.subckt sky130_fd_sc_hd__dlymetal6s2s_1 VPWR VGND VPB VNB X A
X0 a_558_47# a_381_47# VPWR VPB sky130_fd_pr__pfet_01v8_hvt ad=0.26 pd=2.52 as=0.14075 ps=1.325 w=1 l=0.15
X1 VGND X a_381_47# VNB sky130_fd_pr__nfet_01v8 ad=0.097 pd=0.975 as=0.1092 ps=1.36 w=0.42 l=0.15
X2 a_841_47# a_664_47# VPWR VPB sky130_fd_pr__pfet_01v8_hvt ad=0.26 pd=2.52 as=0.14075 ps=1.325 w=1 l=0.15
X3 VPWR A a_62_47# VPB sky130_fd_pr__pfet_01v8_hvt ad=0.14075 pd=1.325 as=0.1092 ps=1.36 w=0.42 l=0.15
X4 VGND A a_62_47# VNB sky130_fd_pr__nfet_01v8 ad=0.097 pd=0.975 as=0.1092 ps=1.36 w=0.42 l=0.15
X5 a_558_47# a_381_47# VGND VNB sky130_fd_pr__nfet_01v8 ad=0.169 pd=1.82 as=0.097 ps=0.975 w=0.65 l=0.15
X6 X a_62_47# VPWR VPB sky130_fd_pr__pfet_01v8_hvt ad=0.26 pd=2.52 as=0.14075 ps=1.325 w=1 l=0.15
X7 VPWR X a_381_47# VPB sky130_fd_pr__pfet_01v8_hvt ad=0.14075 pd=1.325 as=0.1092 ps=1.36 w=0.42 l=0.15
X8 a_841_47# a_664_47# VGND VNB sky130_fd_pr__nfet_01v8 ad=0.169 pd=1.82 as=0.097 ps=0.975 w=0.65 l=0.15
X9 X a_62_47# VGND VNB sky130_fd_pr__nfet_01v8 ad=0.169 pd=1.82 as=0.097 ps=0.975 w=0.65 l=0.15
X10 VPWR a_558_47# a_664_47# VPB sky130_fd_pr__pfet_01v8_hvt ad=0.14075 pd=1.325 as=0.1092 ps=1.36 w=0.42 l=0.15
X11 VGND a_558_47# a_664_47# VNB sky130_fd_pr__nfet_01v8 ad=0.097 pd=0.975 as=0.1092 ps=1.36 w=0.42 l=0.15
.ends

.subckt sky130_fd_sc_hd__nand2b_1 VPB VNB VGND VPWR A_N B Y
X0 VGND A_N a_27_93# VNB sky130_fd_pr__nfet_01v8 ad=0.10025 pd=0.985 as=0.1092 ps=1.36 w=0.42 l=0.15
X1 Y a_27_93# a_206_47# VNB sky130_fd_pr__nfet_01v8 ad=0.169 pd=1.82 as=0.08775 ps=0.92 w=0.65 l=0.15
X2 a_206_47# B VGND VNB sky130_fd_pr__nfet_01v8 ad=0.08775 pd=0.92 as=0.10025 ps=0.985 w=0.65 l=0.15
X3 VPWR a_27_93# Y VPB sky130_fd_pr__pfet_01v8_hvt ad=0.265 pd=2.53 as=0.135 ps=1.27 w=1 l=0.15
X4 Y B VPWR VPB sky130_fd_pr__pfet_01v8_hvt ad=0.135 pd=1.27 as=0.14575 ps=1.335 w=1 l=0.15
X5 VPWR A_N a_27_93# VPB sky130_fd_pr__pfet_01v8_hvt ad=0.14575 pd=1.335 as=0.1092 ps=1.36 w=0.42 l=0.15
.ends

.subckt sky130_fd_sc_hd__buf_1 VGND VPWR X A VPB VNB
X0 VPWR A a_27_47# VPB sky130_fd_pr__pfet_01v8_hvt ad=0.11455 pd=1.08 as=0.2054 ps=2.1 w=0.79 l=0.15
X1 X a_27_47# VGND VNB sky130_fd_pr__nfet_01v8 ad=0.1352 pd=1.56 as=0.0754 ps=0.81 w=0.52 l=0.15
X2 X a_27_47# VPWR VPB sky130_fd_pr__pfet_01v8_hvt ad=0.2054 pd=2.1 as=0.11455 ps=1.08 w=0.79 l=0.15
X3 VGND A a_27_47# VNB sky130_fd_pr__nfet_01v8 ad=0.0754 pd=0.81 as=0.1352 ps=1.56 w=0.52 l=0.15
.ends

.subckt sky130_fd_sc_hd__o2111a_1 VNB VPB VPWR VGND X D1 C1 B1 A2 A1
X0 a_676_297# A2 a_79_21# VPB sky130_fd_pr__pfet_01v8_hvt ad=0.105 pd=1.21 as=0.2125 ps=1.425 w=1 l=0.15
X1 a_512_47# B1 a_409_47# VNB sky130_fd_pr__nfet_01v8 ad=0.19825 pd=1.26 as=0.118625 ps=1.015 w=0.65 l=0.15
X2 a_306_47# D1 a_79_21# VNB sky130_fd_pr__nfet_01v8 ad=0.118625 pd=1.015 as=0.19825 ps=1.91 w=0.65 l=0.15
X3 VGND A2 a_512_47# VNB sky130_fd_pr__nfet_01v8 ad=0.08775 pd=0.92 as=0.19825 ps=1.26 w=0.65 l=0.15
X4 VPWR C1 a_79_21# VPB sky130_fd_pr__pfet_01v8_hvt ad=0.305 pd=1.61 as=0.2175 ps=1.435 w=1 l=0.15
X5 a_79_21# B1 VPWR VPB sky130_fd_pr__pfet_01v8_hvt ad=0.2125 pd=1.425 as=0.305 ps=1.61 w=1 l=0.15
X6 VPWR A1 a_676_297# VPB sky130_fd_pr__pfet_01v8_hvt ad=0.265 pd=2.53 as=0.105 ps=1.21 w=1 l=0.15
X7 a_512_47# A1 VGND VNB sky130_fd_pr__nfet_01v8 ad=0.17225 pd=1.83 as=0.08775 ps=0.92 w=0.65 l=0.15
X8 a_409_47# C1 a_306_47# VNB sky130_fd_pr__nfet_01v8 ad=0.118625 pd=1.015 as=0.118625 ps=1.015 w=0.65 l=0.15
X9 VPWR a_79_21# X VPB sky130_fd_pr__pfet_01v8_hvt ad=0.3825 pd=1.765 as=0.26 ps=2.52 w=1 l=0.15
X10 a_79_21# D1 VPWR VPB sky130_fd_pr__pfet_01v8_hvt ad=0.2175 pd=1.435 as=0.3825 ps=1.765 w=1 l=0.15
X11 VGND a_79_21# X VNB sky130_fd_pr__nfet_01v8 ad=0.169 pd=1.82 as=0.169 ps=1.82 w=0.65 l=0.15
.ends

.subckt sky130_fd_sc_hd__o32a_1 VPB VNB VPWR VGND X A1 A2 A3 B2 B1
X0 a_77_199# B2 a_227_47# VNB sky130_fd_pr__nfet_01v8 ad=0.13325 pd=1.06 as=0.12675 ps=1.04 w=0.65 l=0.15
X1 a_323_297# A2 a_227_297# VPB sky130_fd_pr__pfet_01v8_hvt ad=0.195 pd=1.39 as=0.165 ps=1.33 w=1 l=0.15
X2 a_227_297# A1 VPWR VPB sky130_fd_pr__pfet_01v8_hvt ad=0.165 pd=1.33 as=0.135 ps=1.27 w=1 l=0.15
X3 a_227_47# B1 a_77_199# VNB sky130_fd_pr__nfet_01v8 ad=0.1885 pd=1.88 as=0.13325 ps=1.06 w=0.65 l=0.15
X4 VGND a_77_199# X VNB sky130_fd_pr__nfet_01v8 ad=0.08775 pd=0.92 as=0.169 ps=1.82 w=0.65 l=0.15
X5 VPWR B1 a_539_297# VPB sky130_fd_pr__pfet_01v8_hvt ad=0.29 pd=2.58 as=0.205 ps=1.41 w=1 l=0.15
X6 a_227_47# A3 VGND VNB sky130_fd_pr__nfet_01v8 ad=0.12675 pd=1.04 as=0.12675 ps=1.04 w=0.65 l=0.15
X7 VPWR a_77_199# X VPB sky130_fd_pr__pfet_01v8_hvt ad=0.135 pd=1.27 as=0.335 ps=2.67 w=1 l=0.15
X8 a_77_199# A3 a_323_297# VPB sky130_fd_pr__pfet_01v8_hvt ad=0.195 pd=1.39 as=0.195 ps=1.39 w=1 l=0.15
X9 VGND A2 a_227_47# VNB sky130_fd_pr__nfet_01v8 ad=0.12675 pd=1.04 as=0.10725 ps=0.98 w=0.65 l=0.15
X10 a_227_47# A1 VGND VNB sky130_fd_pr__nfet_01v8 ad=0.10725 pd=0.98 as=0.08775 ps=0.92 w=0.65 l=0.15
X11 a_539_297# B2 a_77_199# VPB sky130_fd_pr__pfet_01v8_hvt ad=0.205 pd=1.41 as=0.195 ps=1.39 w=1 l=0.15
.ends

.subckt sky130_fd_sc_hd__o311ai_4 VGND VPWR VPB VNB A1 A2 A3 B1 C1 Y
X0 a_39_297# A1 VPWR VPB sky130_fd_pr__pfet_01v8_hvt ad=0.135 pd=1.27 as=0.135 ps=1.27 w=1 l=0.15
X1 Y C1 VPWR VPB sky130_fd_pr__pfet_01v8_hvt ad=0.26 pd=2.52 as=0.135 ps=1.27 w=1 l=0.15
X2 VPWR A1 a_39_297# VPB sky130_fd_pr__pfet_01v8_hvt ad=0.135 pd=1.27 as=0.135 ps=1.27 w=1 l=0.15
X3 VPWR B1 Y VPB sky130_fd_pr__pfet_01v8_hvt ad=0.135 pd=1.27 as=0.145 ps=1.29 w=1 l=0.15
X4 a_125_47# A3 VGND VNB sky130_fd_pr__nfet_01v8 ad=0.08775 pd=0.92 as=0.09425 ps=0.94 w=0.65 l=0.15
X5 a_125_47# A1 VGND VNB sky130_fd_pr__nfet_01v8 ad=0.08775 pd=0.92 as=0.08775 ps=0.92 w=0.65 l=0.15
X6 a_125_47# A2 VGND VNB sky130_fd_pr__nfet_01v8 ad=0.08775 pd=0.92 as=0.08775 ps=0.92 w=0.65 l=0.15
X7 a_1163_47# B1 a_125_47# VNB sky130_fd_pr__nfet_01v8 ad=0.08775 pd=0.92 as=0.08775 ps=0.92 w=0.65 l=0.15
X8 a_39_297# A1 VPWR VPB sky130_fd_pr__pfet_01v8_hvt ad=0.135 pd=1.27 as=0.135 ps=1.27 w=1 l=0.15
X9 a_1163_47# B1 a_125_47# VNB sky130_fd_pr__nfet_01v8 ad=0.08775 pd=0.92 as=0.08775 ps=0.92 w=0.65 l=0.15
X10 VGND A3 a_125_47# VNB sky130_fd_pr__nfet_01v8 ad=0.182 pd=1.86 as=0.08775 ps=0.92 w=0.65 l=0.15
X11 VPWR C1 Y VPB sky130_fd_pr__pfet_01v8_hvt ad=0.135 pd=1.27 as=0.135 ps=1.27 w=1 l=0.15
X12 VGND A1 a_125_47# VNB sky130_fd_pr__nfet_01v8 ad=0.08775 pd=0.92 as=0.08775 ps=0.92 w=0.65 l=0.15
X13 VGND A3 a_125_47# VNB sky130_fd_pr__nfet_01v8 ad=0.08775 pd=0.92 as=0.08775 ps=0.92 w=0.65 l=0.15
X14 a_39_297# A2 a_461_297# VPB sky130_fd_pr__pfet_01v8_hvt ad=0.26 pd=2.52 as=0.135 ps=1.27 w=1 l=0.15
X15 VGND A1 a_125_47# VNB sky130_fd_pr__nfet_01v8 ad=0.08775 pd=0.92 as=0.08775 ps=0.92 w=0.65 l=0.15
X16 a_125_47# B1 a_1163_47# VNB sky130_fd_pr__nfet_01v8 ad=0.08775 pd=0.92 as=0.182 ps=1.86 w=0.65 l=0.15
X17 Y C1 VPWR VPB sky130_fd_pr__pfet_01v8_hvt ad=0.135 pd=1.27 as=0.135 ps=1.27 w=1 l=0.15
X18 a_125_47# A1 VGND VNB sky130_fd_pr__nfet_01v8 ad=0.08775 pd=0.92 as=0.182 ps=1.86 w=0.65 l=0.15
X19 VGND A2 a_125_47# VNB sky130_fd_pr__nfet_01v8 ad=0.08775 pd=0.92 as=0.08775 ps=0.92 w=0.65 l=0.15
X20 a_125_47# B1 a_1163_47# VNB sky130_fd_pr__nfet_01v8 ad=0.08775 pd=0.92 as=0.08775 ps=0.92 w=0.65 l=0.15
X21 VGND A2 a_125_47# VNB sky130_fd_pr__nfet_01v8 ad=0.09425 pd=0.94 as=0.08775 ps=0.92 w=0.65 l=0.15
X22 Y C1 a_1163_47# VNB sky130_fd_pr__nfet_01v8 ad=0.08775 pd=0.92 as=0.08775 ps=0.92 w=0.65 l=0.15
X23 Y C1 a_1163_47# VNB sky130_fd_pr__nfet_01v8 ad=0.08775 pd=0.92 as=0.08775 ps=0.92 w=0.65 l=0.15
X24 a_461_297# A2 a_39_297# VPB sky130_fd_pr__pfet_01v8_hvt ad=0.135 pd=1.27 as=0.135 ps=1.27 w=1 l=0.15
X25 Y A3 a_461_297# VPB sky130_fd_pr__pfet_01v8_hvt ad=0.145 pd=1.29 as=0.135 ps=1.27 w=1 l=0.15
X26 VPWR C1 Y VPB sky130_fd_pr__pfet_01v8_hvt ad=0.135 pd=1.27 as=0.135 ps=1.27 w=1 l=0.15
X27 Y A3 a_461_297# VPB sky130_fd_pr__pfet_01v8_hvt ad=0.135 pd=1.27 as=0.135 ps=1.27 w=1 l=0.15
X28 Y B1 VPWR VPB sky130_fd_pr__pfet_01v8_hvt ad=0.135 pd=1.27 as=0.135 ps=1.27 w=1 l=0.15
X29 a_125_47# A3 VGND VNB sky130_fd_pr__nfet_01v8 ad=0.08775 pd=0.92 as=0.08775 ps=0.92 w=0.65 l=0.15
X30 VPWR A1 a_39_297# VPB sky130_fd_pr__pfet_01v8_hvt ad=0.135 pd=1.27 as=0.28 ps=2.56 w=1 l=0.15
X31 a_461_297# A3 Y VPB sky130_fd_pr__pfet_01v8_hvt ad=0.135 pd=1.27 as=0.135 ps=1.27 w=1 l=0.15
X32 a_461_297# A3 Y VPB sky130_fd_pr__pfet_01v8_hvt ad=0.135 pd=1.27 as=0.26 ps=2.52 w=1 l=0.15
X33 VPWR B1 Y VPB sky130_fd_pr__pfet_01v8_hvt ad=0.135 pd=1.27 as=0.135 ps=1.27 w=1 l=0.15
X34 a_125_47# A2 VGND VNB sky130_fd_pr__nfet_01v8 ad=0.08775 pd=0.92 as=0.08775 ps=0.92 w=0.65 l=0.15
X35 a_1163_47# C1 Y VNB sky130_fd_pr__nfet_01v8 ad=0.08775 pd=0.92 as=0.08775 ps=0.92 w=0.65 l=0.15
X36 a_1163_47# C1 Y VNB sky130_fd_pr__nfet_01v8 ad=0.182 pd=1.86 as=0.08775 ps=0.92 w=0.65 l=0.15
X37 Y B1 VPWR VPB sky130_fd_pr__pfet_01v8_hvt ad=0.135 pd=1.27 as=0.135 ps=1.27 w=1 l=0.15
X38 a_39_297# A2 a_461_297# VPB sky130_fd_pr__pfet_01v8_hvt ad=0.135 pd=1.27 as=0.135 ps=1.27 w=1 l=0.15
X39 a_461_297# A2 a_39_297# VPB sky130_fd_pr__pfet_01v8_hvt ad=0.135 pd=1.27 as=0.135 ps=1.27 w=1 l=0.15
.ends

.subckt sky130_fd_sc_hd__o21a_1 VPB VNB VGND VPWR A1 A2 B1 X
X0 VPWR A1 a_382_297# VPB sky130_fd_pr__pfet_01v8_hvt ad=0.26 pd=2.52 as=0.1525 ps=1.305 w=1 l=0.15
X1 a_297_47# B1 a_79_21# VNB sky130_fd_pr__nfet_01v8 ad=0.10075 pd=0.96 as=0.169 ps=1.82 w=0.65 l=0.15
X2 a_297_47# A1 VGND VNB sky130_fd_pr__nfet_01v8 ad=0.169 pd=1.82 as=0.08775 ps=0.92 w=0.65 l=0.15
X3 VGND A2 a_297_47# VNB sky130_fd_pr__nfet_01v8 ad=0.08775 pd=0.92 as=0.10075 ps=0.96 w=0.65 l=0.15
X4 VPWR a_79_21# X VPB sky130_fd_pr__pfet_01v8_hvt ad=0.3275 pd=1.655 as=0.28 ps=2.56 w=1 l=0.15
X5 a_79_21# B1 VPWR VPB sky130_fd_pr__pfet_01v8_hvt ad=0.195 pd=1.39 as=0.3275 ps=1.655 w=1 l=0.15
X6 a_382_297# A2 a_79_21# VPB sky130_fd_pr__pfet_01v8_hvt ad=0.1525 pd=1.305 as=0.195 ps=1.39 w=1 l=0.15
X7 VGND a_79_21# X VNB sky130_fd_pr__nfet_01v8 ad=0.169 pd=1.82 as=0.169 ps=1.82 w=0.65 l=0.15
.ends

.subckt sky130_fd_sc_hd__dfrtp_4 VGND VPWR VPB VNB CLK D RESET_B Q
X0 a_805_47# a_761_289# a_639_47# VNB sky130_fd_pr__nfet_01v8 ad=0.0441 pd=0.63 as=0.1401 ps=1.1 w=0.42 l=0.15
X1 a_1217_47# a_27_47# a_1108_47# VNB sky130_fd_pr__special_nfet_01v8 ad=0.0669 pd=0.75 as=0.0711 ps=0.755 w=0.36 l=0.15
X2 a_1283_21# a_1108_47# a_1462_47# VNB sky130_fd_pr__nfet_01v8 ad=0.1092 pd=1.36 as=0.06405 ps=0.725 w=0.42 l=0.15
X3 a_651_413# a_27_47# a_543_47# VPB sky130_fd_pr__pfet_01v8_hvt ad=0.1155 pd=0.97 as=0.07245 ps=0.765 w=0.42 l=0.15
X4 a_1108_47# a_193_47# a_761_289# VNB sky130_fd_pr__special_nfet_01v8 ad=0.0711 pd=0.755 as=0.0999 ps=0.985 w=0.36 l=0.15
X5 VGND RESET_B a_805_47# VNB sky130_fd_pr__nfet_01v8 ad=0.1346 pd=1.15 as=0.0441 ps=0.63 w=0.42 l=0.15
X6 VPWR a_1283_21# Q VPB sky130_fd_pr__pfet_01v8_hvt ad=0.305 pd=2.61 as=0.135 ps=1.27 w=1 l=0.15
X7 VPWR CLK a_27_47# VPB sky130_fd_pr__pfet_01v8_hvt ad=0.0864 pd=0.91 as=0.1664 ps=1.8 w=0.64 l=0.15
X8 a_448_47# D VPWR VPB sky130_fd_pr__pfet_01v8_hvt ad=0.0651 pd=0.73 as=0.1092 ps=1.36 w=0.42 l=0.15
X9 Q a_1283_21# VPWR VPB sky130_fd_pr__pfet_01v8_hvt ad=0.135 pd=1.27 as=0.135 ps=1.27 w=1 l=0.15
X10 VPWR a_1283_21# Q VPB sky130_fd_pr__pfet_01v8_hvt ad=0.135 pd=1.27 as=0.135 ps=1.27 w=1 l=0.15