* NGSPICE file created from inv_dcdl.ext - technology: sky130A

.subckt sky130_fd_sc_hd__decap_6 VPWR VGND VPB VNB
X0 VPWR VGND VPWR VPB sky130_fd_pr__pfet_01v8_hvt ad=0.2262 pd=2.26 as=0 ps=0 w=0.87 l=1.97
X1 VGND VPWR VGND VNB sky130_fd_pr__nfet_01v8 ad=0.143 pd=1.62 as=0 ps=0 w=0.55 l=1.97
.ends

.subckt sky130_ef_sc_hd__decap_12 VGND VPWR VPB VNB
X0 VPWR VGND VPWR VPB sky130_fd_pr__pfet_01v8_hvt ad=0.2262 pd=2.26 as=0 ps=0 w=0.87 l=4.73
X1 VGND VPWR VGND VNB sky130_fd_pr__nfet_01v8 ad=0.143 pd=1.62 as=0 ps=0 w=0.55 l=4.73
.ends

.subckt sky130_fd_sc_hd__inv_1 VPB VNB VGND VPWR A Y
X0 Y A VGND VNB sky130_fd_pr__nfet_01v8 ad=0.169 pd=1.82 as=0.169 ps=1.82 w=0.65 l=0.15
X1 Y A VPWR VPB sky130_fd_pr__pfet_01v8_hvt ad=0.26 pd=2.52 as=0.26 ps=2.52 w=1 l=0.15
.ends

.subckt sky130_fd_sc_hd__decap_4 VGND VPWR VPB VNB
X0 VPWR VGND VPWR VPB sky130_fd_pr__pfet_01v8_hvt ad=0.2262 pd=2.26 as=0 ps=0 w=0.87 l=1.05
X1 VGND VPWR VGND VNB sky130_fd_pr__nfet_01v8 ad=0.143 pd=1.62 as=0 ps=0 w=0.55 l=1.05
.ends

.subckt sky130_fd_sc_hd__mux4_2 VNB VPB VGND VPWR S0 A2 A3 S1 A1 A0 X
X0 a_600_345# S1 VPWR VPB sky130_fd_pr__pfet_01v8_hvt ad=0.1664 pd=1.8 as=0.0864 ps=0.91 w=0.64 l=0.15
X1 a_788_316# S1 a_288_47# VNB sky130_fd_pr__nfet_01v8 ad=0.05775 pd=0.695 as=0.1092 ps=1.36 w=0.42 l=0.15
X2 VPWR A3 a_372_413# VPB sky130_fd_pr__pfet_01v8_hvt ad=0.0864 pd=0.91 as=0.1645 ps=1.33 w=0.64 l=0.15
X3 a_872_316# a_600_345# a_788_316# VNB sky130_fd_pr__nfet_01v8 ad=0.1092 pd=1.36 as=0.05775 ps=0.695 w=0.42 l=0.15
X4 VPWR S0 a_27_47# VPB sky130_fd_pr__pfet_01v8_hvt ad=0.0864 pd=0.91 as=0.1664 ps=1.8 w=0.64 l=0.15
X5 a_1279_413# S0 a_872_316# VPB sky130_fd_pr__pfet_01v8_hvt ad=0.10535 pd=0.995 as=0.0567 ps=0.69 w=0.42 l=0.15
X6 VGND a_788_316# X VNB sky130_fd_pr__nfet_01v8 ad=0.221 pd=1.98 as=0.08775 ps=0.92 w=0.65 l=0.15
X7 a_1060_369# A1 VPWR VPB sky130_fd_pr__pfet_01v8_hvt ad=0.13775 pd=1.165 as=0.1664 ps=1.8 w=0.64 l=0.15
X8 a_872_316# a_27_47# a_1060_369# VPB sky130_fd_pr__pfet_01v8_hvt ad=0.0567 pd=0.69 as=0.13775 ps=1.165 w=0.42 l=0.15
X9 a_193_47# A2 VGND VNB sky130_fd_pr__nfet_01v8 ad=0.066 pd=0.745 as=0.0567 ps=0.69 w=0.42 l=0.15
X10 a_1064_47# A1 VGND VNB sky130_fd_pr__nfet_01v8 ad=0.0786 pd=0.805 as=0.1092 ps=1.36 w=0.42 l=0.15
X11 a_1281_47# a_27_47# a_872_316# VNB sky130_fd_pr__special_nfet_01v8 ad=0.066 pd=0.745 as=0.072 ps=0.76 w=0.36 l=0.15
X12 a_872_316# S1 a_788_316# VPB sky130_fd_pr__pfet_01v8_hvt ad=0.1404 pd=1.6 as=0.0729 ps=0.81 w=0.54 l=0.15
X13 a_872_316# S0 a_1064_47# VNB sky130_fd_pr__special_nfet_01v8 ad=0.072 pd=0.76 as=0.0786 ps=0.805 w=0.36 l=0.15
X14 X a_788_316# VGND VNB sky130_fd_pr__nfet_01v8 ad=0.08775 pd=0.92 as=0.10675 ps=1.005 w=0.65 l=0.15
X15 a_788_316# a_600_345# a_288_47# VPB sky130_fd_pr__pfet_01v8_hvt ad=0.0729 pd=0.81 as=0.1404 ps=1.6 w=0.54 l=0.15
X16 a_372_413# a_27_47# a_288_47# VPB sky130_fd_pr__pfet_01v8_hvt ad=0.1645 pd=1.33 as=0.0567 ps=0.69 w=0.42 l=0.15
X17 VGND A3 a_397_47# VNB sky130_fd_pr__nfet_01v8 ad=0.0819 pd=0.81 as=0.06705 ps=0.75 w=0.42 l=0.15
X18 a_600_345# S1 VGND VNB sky130_fd_pr__nfet_01v8 ad=0.1134 pd=1.38 as=0.0819 ps=0.81 w=0.42 l=0.15
X19 a_193_369# A2 VPWR VPB sky130_fd_pr__pfet_01v8_hvt ad=0.09575 pd=0.965 as=0.0864 ps=0.91 w=0.64 l=0.15
X20 VPWR a_788_316# X VPB sky130_fd_pr__pfet_01v8_hvt ad=0.34 pd=2.68 as=0.135 ps=1.27 w=1 l=0.15
X21 a_288_47# S0 a_193_369# VPB sky130_fd_pr__pfet_01v8_hvt ad=0.0567 pd=0.69 as=0.09575 ps=0.965 w=0.42 l=0.15
X22 VGND A0 a_1281_47# VNB sky130_fd_pr__nfet_01v8 ad=0.10675 pd=1.005 as=0.066 ps=0.745 w=0.42 l=0.15
X23 a_397_47# S0 a_288_47# VNB sky130_fd_pr__special_nfet_01v8 ad=0.06705 pd=0.75 as=0.0711 ps=0.755 w=0.36 l=0.15
X24 X a_788_316# VPWR VPB sky130_fd_pr__pfet_01v8_hvt ad=0.135 pd=1.27 as=0.154 ps=1.335 w=1 l=0.15
X25 a_288_47# a_27_47# a_193_47# VNB sky130_fd_pr__special_nfet_01v8 ad=0.0711 pd=0.755 as=0.066 ps=0.745 w=0.36 l=0.15
X26 VGND S0 a_27_47# VNB sky130_fd_pr__nfet_01v8 ad=0.0567 pd=0.69 as=0.1092 ps=1.36 w=0.42 l=0.15
X27 VPWR A0 a_1279_413# VPB sky130_fd_pr__pfet_01v8_hvt ad=0.154 pd=1.335 as=0.10535 ps=0.995 w=0.64 l=0.15
.ends

.subckt sky130_fd_sc_hd__a22o_2 VPWR VGND VPB VNB B2 B1 A1 A2 X
X0 VPWR a_27_297# X VPB sky130_fd_pr__pfet_01v8_hvt ad=0.27 pd=2.54 as=0.135 ps=1.27 w=1 l=0.15
X1 VGND A2 a_381_47# VNB sky130_fd_pr__nfet_01v8 ad=0.102375 pd=0.965 as=0.10725 ps=0.98 w=0.65 l=0.15
X2 X a_27_297# VGND VNB sky130_fd_pr__nfet_01v8 ad=0.08775 pd=0.92 as=0.102375 ps=0.965 w=0.65 l=0.15
X3 X a_27_297# VPWR VPB sky130_fd_pr__pfet_01v8_hvt ad=0.135 pd=1.27 as=0.1575 ps=1.315 w=1 l=0.15
X4 a_27_297# B1 a_109_47# VNB sky130_fd_pr__nfet_01v8 ad=0.169 pd=1.82 as=0.07475 ps=0.88 w=0.65 l=0.15
X5 a_27_297# B1 a_109_297# VPB sky130_fd_pr__pfet_01v8_hvt ad=0.26 pd=2.52 as=0.135 ps=1.27 w=1 l=0.15
X6 VGND a_27_297# X VNB sky130_fd_pr__nfet_01v8 ad=0.1755 pd=1.84 as=0.08775 ps=0.92 w=0.65 l=0.15
X7 a_109_297# A1 VPWR VPB sky130_fd_pr__pfet_01v8_hvt ad=0.165 pd=1.33 as=0.26 ps=2.52 w=1 l=0.15
X8 VPWR A2 a_109_297# VPB sky130_fd_pr__pfet_01v8_hvt ad=0.1575 pd=1.315 as=0.165 ps=1.33 w=1 l=0.15
X9 a_381_47# A1 a_27_297# VNB sky130_fd_pr__nfet_01v8 ad=0.10725 pd=0.98 as=0.169 ps=1.82 w=0.65 l=0.15
X10 a_109_297# B2 a_27_297# VPB sky130_fd_pr__pfet_01v8_hvt ad=0.135 pd=1.27 as=0.26 ps=2.52 w=1 l=0.15
X11 a_109_47# B2 VGND VNB sky130_fd_pr__nfet_01v8 ad=0.07475 pd=0.88 as=0.169 ps=1.82 w=0.65 l=0.15
.ends

.subckt sky130_fd_sc_hd__decap_8 VPWR VGND VPB VNB
X0 VPWR VGND VPWR VPB sky130_fd_pr__pfet_01v8_hvt ad=0.2262 pd=2.26 as=0 ps=0 w=0.87 l=2.89
X1 VGND VPWR VGND VNB sky130_fd_pr__nfet_01v8 ad=0.143 pd=1.62 as=0 ps=0 w=0.55 l=2.89
.ends

.subckt sky130_fd_sc_hd__decap_3 VPWR VGND VPB VNB
X0 VPWR VGND VPWR VPB sky130_fd_pr__pfet_01v8_hvt ad=0.2262 pd=2.26 as=0 ps=0 w=0.87 l=0.59
X1 VGND VPWR VGND VNB sky130_fd_pr__nfet_01v8 ad=0.143 pd=1.62 as=0 ps=0 w=0.55 l=0.59
.ends

.subckt sky130_fd_sc_hd__inv_2 VPB VNB VPWR VGND Y A
X0 Y A VPWR VPB sky130_fd_pr__pfet_01v8_hvt ad=0.135 pd=1.27 as=0.26 ps=2.52 w=1 l=0.15
X1 VGND A Y VNB sky130_fd_pr__nfet_01v8 ad=0.169 pd=1.82 as=0.08775 ps=0.92 w=0.65 l=0.15
X2 Y A VGND VNB sky130_fd_pr__nfet_01v8 ad=0.08775 pd=0.92 as=0.169 ps=1.82 w=0.65 l=0.15
X3 VPWR A Y VPB sky130_fd_pr__pfet_01v8_hvt ad=0.26 pd=2.52 as=0.135 ps=1.27 w=1 l=0.15
.ends

.subckt sky130_fd_sc_hd__o21a_2 VNB VPB VGND VPWR X B1 A2 A1
X0 VPWR A1 a_470_297# VPB sky130_fd_pr__pfet_01v8_hvt ad=0.265 pd=2.53 as=0.16 ps=1.32 w=1 l=0.15
X1 a_79_21# B1 VPWR VPB sky130_fd_pr__pfet_01v8_hvt ad=0.14 pd=1.28 as=0.4 ps=1.8 w=1 l=0.15
X2 VGND a_79_21# X VNB sky130_fd_pr__nfet_01v8 ad=0.17225 pd=1.83 as=0.089375 ps=0.925 w=0.65 l=0.15
X3 VGND A2 a_384_47# VNB sky130_fd_pr__nfet_01v8 ad=0.104 pd=0.97 as=0.091 ps=0.93 w=0.65 l=0.15
X4 a_470_297# A2 a_79_21# VPB sky130_fd_pr__pfet_01v8_hvt ad=0.16 pd=1.32 as=0.14 ps=1.28 w=1 l=0.15
X5 VPWR a_79_21# X VPB sky130_fd_pr__pfet_01v8_hvt ad=0.4 pd=1.8 as=0.1375 ps=1.275 w=1 l=0.15
X6 a_384_47# B1 a_79_21# VNB sky130_fd_pr__nfet_01v8 ad=0.091 pd=0.93 as=0.17225 ps=1.83 w=0.65 l=0.15
X7 a_384_47# A1 VGND VNB sky130_fd_pr__nfet_01v8 ad=0.17225 pd=1.83 as=0.104 ps=0.97 w=0.65 l=0.15
X8 X a_79_21# VPWR VPB sky130_fd_pr__pfet_01v8_hvt ad=0.1375 pd=1.275 as=0.26 ps=2.52 w=1 l=0.15
X9 X a_79_21# VGND VNB sky130_fd_pr__nfet_01v8 ad=0.089375 pd=0.925 as=0.169 ps=1.82 w=0.65 l=0.15
.ends

.subckt sky130_fd_sc_hd__mux2_1 VGND VPWR VPB VNB X A1 S A0
X0 VPWR a_505_21# a_535_374# VPB sky130_fd_pr__pfet_01v8_hvt ad=0.0693 pd=0.75 as=0.0441 ps=0.63 w=0.42 l=0.15
X1 a_505_21# S VPWR VPB sky130_fd_pr__pfet_01v8_hvt ad=0.1176 pd=1.4 as=0.0693 ps=0.75 w=0.42 l=0.15
X2 a_218_374# S VPWR VPB sky130_fd_pr__pfet_01v8_hvt ad=0.07665 pd=0.785 as=0.15835 ps=1.395 w=0.42 l=0.15
X3 VGND a_505_21# a_439_47# VNB sky130_fd_pr__nfet_01v8 ad=0.1449 pd=1.11 as=0.0693 ps=0.75 w=0.42 l=0.15
X4 a_76_199# A0 a_218_374# VPB sky130_fd_pr__pfet_01v8_hvt ad=0.1932 pd=1.34 as=0.07665 ps=0.785 w=0.42 l=0.15
X5 a_505_21# S VGND VNB sky130_fd_pr__nfet_01v8 ad=0.1092 pd=1.36 as=0.1449 ps=1.11 w=0.42 l=0.15
X6 a_439_47# A0 a_76_199# VNB sky130_fd_pr__nfet_01v8 ad=0.0693 pd=0.75 as=0.09975 ps=0.895 w=0.42 l=0.15
X7 a_535_374# A1 a_76_199# VPB sky130_fd_pr__pfet_01v8_hvt ad=0.0441 pd=0.63 as=0.1932 ps=1.34 w=0.42 l=0.15
X8 a_76_199# A1 a_218_47# VNB sky130_fd_pr__nfet_01v8 ad=0.09975 pd=0.895 as=0.0693 ps=0.75 w=0.42 l=0.15
X9 a_218_47# S VGND VNB sky130_fd_pr__nfet_01v8 ad=0.0693 pd=0.75 as=0.11285 ps=1.045 w=0.42 l=0.15
X10 VPWR a_76_199# X VPB sky130_fd_pr__pfet_01v8_hvt ad=0.15835 pd=1.395 as=0.26 ps=2.52 w=1 l=0.15
X11 VGND a_76_199# X VNB sky130_fd_pr__nfet_01v8 ad=0.11285 pd=1.045 as=0.169 ps=1.82 w=0.65 l=0.15
.ends

.subckt sky130_fd_sc_hd__or2_2 VPWR VGND VPB VNB X A B
X0 a_121_297# B a_39_297# VPB sky130_fd_pr__pfet_01v8_hvt ad=0.0441 pd=0.63 as=0.1092 ps=1.36 w=0.42 l=0.15
X1 X a_39_297# VGND VNB sky130_fd_pr__nfet_01v8 ad=0.08775 pd=0.92 as=0.10675 ps=1.005 w=0.65 l=0.15
X2 VPWR a_39_297# X VPB sky130_fd_pr__pfet_01v8_hvt ad=0.26 pd=2.52 as=0.135 ps=1.27 w=1 l=0.15
X3 X a_39_297# VPWR VPB sky130_fd_pr__pfet_01v8_hvt ad=0.135 pd=1.27 as=0.15575 ps=1.355 w=1 l=0.15
X4 VGND a_39_297# X VNB sky130_fd_pr__nfet_01v8 ad=0.169 pd=1.82 as=0.08775 ps=0.92 w=0.65 l=0.15
X5 VPWR A a_121_297# VPB sky130_fd_pr__pfet_01v8_hvt ad=0.15575 pd=1.355 as=0.0441 ps=0.63 w=0.42 l=0.15
X6 VGND A a_39_297# VNB sky130_fd_pr__nfet_01v8 ad=0.10675 pd=1.005 as=0.0567 ps=0.69 w=0.42 l=0.15
X7 a_39_297# B VGND VNB sky130_fd_pr__nfet_01v8 ad=0.0567 pd=0.69 as=0.1092 ps=1.36 w=0.42 l=0.15
.ends

.subckt sky130_fd_sc_hd__a21o_2 VNB VPB VGND VPWR A2 A1 B1 X
X0 VPWR a_80_199# X VPB sky130_fd_pr__pfet_01v8_hvt ad=0.265 pd=2.53 as=0.14 ps=1.28 w=1 l=0.15
X1 X a_80_199# VPWR VPB sky130_fd_pr__pfet_01v8_hvt ad=0.14 pd=1.28 as=0.265 ps=2.53 w=1 l=0.15
X2 VGND a_80_199# X VNB sky130_fd_pr__nfet_01v8 ad=0.1105 pd=0.99 as=0.091 ps=0.93 w=0.65 l=0.15
X3 a_386_297# A2 VPWR VPB sky130_fd_pr__pfet_01v8_hvt ad=0.26 pd=2.52 as=0.1575 ps=1.315 w=1 l=0.15
X4 X a_80_199# VGND VNB sky130_fd_pr__nfet_01v8 ad=0.091 pd=0.93 as=0.17225 ps=1.83 w=0.65 l=0.15
X5 a_80_199# B1 VGND VNB sky130_fd_pr__nfet_01v8 ad=0.1625 pd=1.15 as=0.1105 ps=0.99 w=0.65 l=0.15
X6 a_386_297# B1 a_80_199# VPB sky130_fd_pr__pfet_01v8_hvt ad=0.14 pd=1.28 as=0.265 ps=2.53 w=1 l=0.15
X7 a_458_47# A1 a_80_199# VNB sky130_fd_pr__nfet_01v8 ad=0.1235 pd=1.03 as=0.1625 ps=1.15 w=0.65 l=0.15
X8 VPWR A1 a_386_297# VPB sky130_fd_pr__pfet_01v8_hvt ad=0.1575 pd=1.315 as=0.14 ps=1.28 w=1 l=0.15
X9 VGND A2 a_458_47# VNB sky130_fd_pr__nfet_01v8 ad=0.17225 pd=1.83 as=0.1235 ps=1.03 w=0.65 l=0.15
.ends

.subckt sky130_fd_sc_hd__and2b_2 VNB VPB VPWR VGND A_N X B
X0 VPWR a_212_413# X VPB sky130_fd_pr__pfet_01v8_hvt ad=0.26 pd=2.52 as=0.135 ps=1.27 w=1 l=0.15
X1 a_297_47# a_27_413# a_212_413# VNB sky130_fd_pr__nfet_01v8 ad=0.0567 pd=0.69 as=0.1092 ps=1.36 w=0.42 l=0.15
X2 X a_212_413# VPWR VPB sky130_fd_pr__pfet_01v8_hvt ad=0.135 pd=1.27 as=0.22895 ps=1.745 w=1 l=0.15
X3 X a_212_413# VGND VNB sky130_fd_pr__nfet_01v8 ad=0.08775 pd=0.92 as=0.101875 ps=0.99 w=0.65 l=0.15
X4 a_212_413# a_27_413# VPWR VPB sky130_fd_pr__pfet_01v8_hvt ad=0.0609 pd=0.71 as=0.07665 ps=0.785 w=0.42 l=0.15
X5 VPWR A_N a_27_413# VPB sky130_fd_pr__pfet_01v8_hvt ad=0.07665 pd=0.785 as=0.1092 ps=1.36 w=0.42 l=0.15
X6 VPWR B a_212_413# VPB sky130_fd_pr__pfet_01v8_hvt ad=0.22895 pd=1.745 as=0.0609 ps=0.71 w=0.42 l=0.15
X7 VGND B a_297_47# VNB sky130_fd_pr__nfet_01v8 ad=0.101875 pd=0.99 as=0.0567 ps=0.69 w=0.42 l=0.15
X8 VGND a_212_413# X VNB sky130_fd_pr__nfet_01v8 ad=0.1755 pd=1.84 as=0.08775 ps=0.92 w=0.65 l=0.15
X9 a_27_413# A_N VGND VNB sky130_fd_pr__nfet_01v8 ad=0.1092 pd=1.36 as=0.1092 ps=1.36 w=0.42 l=0.15
.ends

.subckt sky130_fd_sc_hd__and2_2 VPWR VGND A X B VPB VNB
X0 X a_61_75# VPWR VPB sky130_fd_pr__pfet_01v8_hvt ad=0.195 pd=1.39 as=0.16655 ps=1.39 w=1 l=0.15
X1 VPWR a_61_75# X VPB sky130_fd_pr__pfet_01v8_hvt ad=0.38 pd=2.76 as=0.195 ps=1.39 w=1 l=0.15
X2 VPWR B a_61_75# VPB sky130_fd_pr__pfet_01v8_hvt ad=0.16655 pd=1.39 as=0.0567 ps=0.69 w=0.42 l=0.15
X3 VGND B a_147_75# VNB sky130_fd_pr__nfet_01v8 ad=0.1118 pd=1.04 as=0.0567 ps=0.69 w=0.42 l=0.15
X4 X a_61_75# VGND VNB sky130_fd_pr__nfet_01v8 ad=0.12675 pd=1.04 as=0.1118 ps=1.04 w=0.65 l=0.15
X5 VGND a_61_75# X VNB sky130_fd_pr__nfet_01v8 ad=0.247 pd=2.06 as=0.12675 ps=1.04 w=0.65 l=0.15
X6 a_61_75# A VPWR VPB sky130_fd_pr__pfet_01v8_hvt ad=0.0567 pd=0.69 as=0.1176 ps=1.4 w=0.42 l=0.15
X7 a_147_75# A a_61_75# VNB sky130_fd_pr__nfet_01v8 ad=0.0567 pd=0.69 as=0.1176 ps=1.4 w=0.42 l=0.15
.ends

.subckt sky130_fd_sc_hd__a211o_2 VNB VPB VGND VPWR X A2 A1 B1 C1
X0 a_79_21# A1 a_348_47# VNB sky130_fd_pr__nfet_01v8 ad=0.115375 pd=1.005 as=0.13325 ps=1.06 w=0.65 l=0.15
X1 a_79_21# C1 VGND VNB sky130_fd_pr__nfet_01v8 ad=0.169 pd=1.82 as=0.10725 ps=0.98 w=0.65 l=0.15
X2 VGND a_79_21# X VNB sky130_fd_pr__nfet_01v8 ad=0.199875 pd=1.265 as=0.091 ps=0.93 w=0.65 l=0.15
X3 VPWR a_79_21# X VPB sky130_fd_pr__pfet_01v8_hvt ad=0.26 pd=2.52 as=0.135 ps=1.27 w=1 l=0.15
X4 a_79_21# C1 a_585_297# VPB sky130_fd_pr__pfet_01v8_hvt ad=0.26 pd=2.52 as=0.105 ps=1.21 w=1 l=0.15
X5 VPWR A2 a_299_297# VPB sky130_fd_pr__pfet_01v8_hvt ad=0.195 pd=1.39 as=0.26 ps=2.52 w=1 l=0.15
X6 a_299_297# A1 VPWR VPB sky130_fd_pr__pfet_01v8_hvt ad=0.165 pd=1.33 as=0.195 ps=1.39 w=1 l=0.15
X7 a_585_297# B1 a_299_297# VPB sky130_fd_pr__pfet_01v8_hvt ad=0.105 pd=1.21 as=0.165 ps=1.33 w=1 l=0.15
X8 a_348_47# A2 VGND VNB sky130_fd_pr__nfet_01v8 ad=0.13325 pd=1.06 as=0.199875 ps=1.265 w=0.65 l=0.15
X9 X a_79_21# VPWR VPB sky130_fd_pr__pfet_01v8_hvt ad=0.135 pd=1.27 as=0.26 ps=2.52 w=1 l=0.15
X10 X a_79_21# VGND VNB sky130_fd_pr__nfet_01v8 ad=0.091 pd=0.93 as=0.169 ps=1.82 w=0.65 l=0.15
X11 VGND B1 a_79_21# VNB sky130_fd_pr__nfet_01v8 ad=0.10725 pd=0.98 as=0.115375 ps=1.005 w=0.65 l=0.15
.ends

.subckt sky130_fd_sc_hd__o21ba_2 VNB VPB VGND VPWR A2 A1 B1_N X
X0 VGND B1_N a_27_93# VNB sky130_fd_pr__nfet_01v8 ad=0.097 pd=0.975 as=0.1092 ps=1.36 w=0.42 l=0.15
X1 VGND A2 a_478_47# VNB sky130_fd_pr__nfet_01v8 ad=0.08775 pd=0.92 as=0.105625 ps=0.975 w=0.65 l=0.15
X2 a_478_47# a_27_93# a_174_21# VNB sky130_fd_pr__nfet_01v8 ad=0.105625 pd=0.975 as=0.169 ps=1.82 w=0.65 l=0.15
X3 a_478_47# A1 VGND VNB sky130_fd_pr__nfet_01v8 ad=0.169 pd=1.82 as=0.08775 ps=0.92 w=0.65 l=0.15
X4 X a_174_21# VGND VNB sky130_fd_pr__nfet_01v8 ad=0.08775 pd=0.92 as=0.097 ps=0.975 w=0.65 l=0.15
X5 VPWR a_174_21# X VPB sky130_fd_pr__pfet_01v8_hvt ad=0.395 pd=1.79 as=0.135 ps=1.27 w=1 l=0.15
X6 X a_174_21# VPWR VPB sky130_fd_pr__pfet_01v8_hvt ad=0.135 pd=1.27 as=0.14575 ps=1.335 w=1 l=0.15
X7 VPWR A1 a_574_297# VPB sky130_fd_pr__pfet_01v8_hvt ad=0.28 pd=2.56 as=0.105 ps=1.21 w=1 l=0.15
X8 VGND a_174_21# X VNB sky130_fd_pr__nfet_01v8 ad=0.169 pd=1.82 as=0.08775 ps=0.92 w=0.65 l=0.15
X9 VPWR B1_N a_27_93# VPB sky130_fd_pr__pfet_01v8_hvt ad=0.14575 pd=1.335 as=0.1092 ps=1.36 w=0.42 l=0.15
X10 a_574_297# A2 a_174_21# VPB sky130_fd_pr__pfet_01v8_hvt ad=0.105 pd=1.21 as=0.165 ps=1.33 w=1 l=0.15
X11 a_174_21# a_27_93# VPWR VPB sky130_fd_pr__pfet_01v8_hvt ad=0.165 pd=1.33 as=0.395 ps=1.79 w=1 l=0.15
.ends

.subckt sky130_fd_sc_hd__o31a_2 VGND VPWR VPB VNB X A1 A2 A3 B1
X0 a_108_21# B1 a_346_47# VNB sky130_fd_pr__nfet_01v8 ad=0.2015 pd=1.92 as=0.10725 ps=0.98 w=0.65 l=0.15
X1 a_346_47# A3 VGND VNB sky130_fd_pr__nfet_01v8 ad=0.10725 pd=0.98 as=0.10725 ps=0.98 w=0.65 l=0.15
X2 X a_108_21# VGND VNB sky130_fd_pr__nfet_01v8 ad=0.11375 pd=1 as=0.26325 ps=2.11 w=0.65 l=0.15
X3 a_108_21# A3 a_430_297# VPB sky130_fd_pr__pfet_01v8_hvt ad=0.2125 pd=1.425 as=0.165 ps=1.33 w=1 l=0.15
X4 a_430_297# A2 a_346_297# VPB sky130_fd_pr__pfet_01v8_hvt ad=0.165 pd=1.33 as=0.135 ps=1.27 w=1 l=0.15
X5 VPWR a_108_21# X VPB sky130_fd_pr__pfet_01v8_hvt ad=0.195 pd=1.39 as=0.175 ps=1.35 w=1 l=0.15
X6 a_346_297# A1 VPWR VPB sky130_fd_pr__pfet_01v8_hvt ad=0.135 pd=1.27 as=0.195 ps=1.39 w=1 l=0.15
X7 VGND A2 a_346_47# VNB sky130_fd_pr__nfet_01v8 ad=0.10725 pd=0.98 as=0.08775 ps=0.92 w=0.65 l=0.15
X8 X a_108_21# VPWR VPB sky130_fd_pr__pfet_01v8_hvt ad=0.175 pd=1.35 as=0.405 ps=2.81 w=1 l=0.15
X9 VPWR B1 a_108_21# VPB sky130_fd_pr__pfet_01v8_hvt ad=0.34 pd=2.68 as=0.2125 ps=1.425 w=1 l=0.15
X10 VGND a_108_21# X VNB sky130_fd_pr__nfet_01v8 ad=0.12675 pd=1.04 as=0.11375 ps=1 w=0.65 l=0.15
X11 a_346_47# A1 VGND VNB sky130_fd_pr__nfet_01v8 ad=0.08775 pd=0.92 as=0.12675 ps=1.04 w=0.65 l=0.15
.ends

.subckt sky130_fd_sc_hd__o221a_2 VPB VNB VGND VPWR B1 B2 A2 A1 X C1
X0 VPWR a_38_47# X VPB sky130_fd_pr__pfet_01v8_hvt ad=0.26 pd=2.52 as=0.135 ps=1.27 w=1 l=0.15
X1 VPWR A1 a_497_297# VPB sky130_fd_pr__pfet_01v8_hvt ad=0.165 pd=1.33 as=0.105 ps=1.21 w=1 l=0.15
X2 X a_38_47# VPWR VPB sky130_fd_pr__pfet_01v8_hvt ad=0.135 pd=1.27 as=0.165 ps=1.33 w=1 l=0.15
X3 a_141_47# B2 a_225_47# VNB sky130_fd_pr__nfet_01v8 ad=0.169 pd=1.82 as=0.08775 ps=0.92 w=0.65 l=0.15
X4 a_497_297# A2 a_38_47# VPB sky130_fd_pr__pfet_01v8_hvt ad=0.105 pd=1.21 as=0.3875 ps=1.775 w=1 l=0.15
X5 VGND A1 a_225_47# VNB sky130_fd_pr__nfet_01v8 ad=0.08775 pd=0.92 as=0.08775 ps=0.92 w=0.65 l=0.15
X6 VPWR C1 a_38_47# VPB sky130_fd_pr__pfet_01v8_hvt ad=0.165 pd=1.33 as=0.325 ps=2.65 w=1 l=0.15
X7 a_237_297# B1 VPWR VPB sky130_fd_pr__pfet_01v8_hvt ad=0.1125 pd=1.225 as=0.165 ps=1.33 w=1 l=0.15
X8 a_38_47# B2 a_237_297# VPB sky130_fd_pr__pfet_01v8_hvt ad=0.3875 pd=1.775 as=0.1125 ps=1.225 w=1 l=0.15
X9 a_225_47# A2 VGND VNB sky130_fd_pr__nfet_01v8 ad=0.08775 pd=0.92 as=0.169 ps=1.82 w=0.65 l=0.15
X10 X a_38_47# VGND VNB sky130_fd_pr__nfet_01v8 ad=0.08775 pd=0.92 as=0.08775 ps=0.92 w=0.65 l=0.15
X11 a_141_47# C1 a_38_47# VNB sky130_fd_pr__nfet_01v8 ad=0.08775 pd=0.92 as=0.23725 ps=2.03 w=0.65 l=0.15
X12 VGND a_38_47# X VNB sky130_fd_pr__nfet_01v8 ad=0.169 pd=1.82 as=0.08775 ps=0.92 w=0.65 l=0.15
X13 a_225_47# B1 a_141_47# VNB sky130_fd_pr__nfet_01v8 ad=0.08775 pd=0.92 as=0.08775 ps=0.92 w=0.65 l=0.15
.ends

.subckt inv_dcdl A Q[0] Q[1] Q[2] Q[3] Q[4] Q[5] VGND VPWR Y
XFILLER_22_133 VPWR VGND VPWR VGND sky130_fd_sc_hd__decap_6
XFILLER_22_177 VGND VPWR VPWR VGND sky130_ef_sc_hd__decap_12
Xdelay_chain\[28\].genblk1.inv_a.core_inv VPWR VGND VGND VPWR tap\[27\] d\[28\] sky130_fd_sc_hd__inv_1
XFILLER_45_225 VGND VPWR VPWR VGND sky130_ef_sc_hd__decap_12
XFILLER_26_41 VGND VPWR VPWR VGND sky130_ef_sc_hd__decap_12
XFILLER_26_85 VGND VPWR VPWR VGND sky130_ef_sc_hd__decap_12
XFILLER_9_137 VGND VPWR VPWR VGND sky130_ef_sc_hd__decap_12
Xdelay_chain\[37\].genblk1.inv_a.core_inv VPWR VGND VGND VPWR tap\[36\] d\[37\] sky130_fd_sc_hd__inv_1
Xdelay_chain\[46\].genblk1.inv_a.core_inv VPWR VGND VGND VPWR tap\[45\] d\[46\] sky130_fd_sc_hd__inv_1
XFILLER_27_225 VGND VPWR VPWR VGND sky130_ef_sc_hd__decap_12
XFILLER_12_65 VGND VPWR VPWR VGND sky130_ef_sc_hd__decap_12
Xdelay_chain\[55\].genblk1.inv_a.core_inv VPWR VGND VGND VPWR tap\[54\] d\[55\] sky130_fd_sc_hd__inv_1
XFILLER_37_51 VGND VPWR VPWR VGND sky130_fd_sc_hd__decap_4
XFILLER_41_261 VGND VPWR VPWR VGND sky130_ef_sc_hd__decap_12
XFILLER_33_217 VPWR VGND VPWR VGND sky130_fd_sc_hd__decap_6
XFILLER_30_209 VGND VPWR VPWR VGND sky130_ef_sc_hd__decap_12
X_062_ VGND VPWR VGND VPWR Q[0] tap\[46\] tap\[47\] Q[1] tap\[45\] tap\[44\] _034_
+ sky130_fd_sc_hd__mux4_2
XFILLER_2_121 VGND VPWR VPWR VGND sky130_ef_sc_hd__decap_12
XFILLER_0_57 VGND VPWR VPWR VGND sky130_ef_sc_hd__decap_12
XFILLER_14_272 VGND VPWR VPWR VGND sky130_ef_sc_hd__decap_12
XFILLER_12_209 VGND VPWR VPWR VGND sky130_ef_sc_hd__decap_12
XFILLER_20_253 VGND VPWR VPWR VGND sky130_ef_sc_hd__decap_12
XFILLER_18_53 VGND VPWR VPWR VGND sky130_ef_sc_hd__decap_12
XFILLER_18_97 VGND VPWR VPWR VGND sky130_ef_sc_hd__decap_12
XFILLER_34_41 VGND VPWR VPWR VGND sky130_ef_sc_hd__decap_12
XFILLER_34_85 VGND VPWR VPWR VGND sky130_ef_sc_hd__decap_12
X_114_ VPWR VGND VPWR VGND _031_ _027_ _024_ _026_ _028_ sky130_fd_sc_hd__a22o_2
Xdelay_chain\[2\].genblk1.inv_a.core_inv VPWR VGND VGND VPWR tap\[1\] d\[2\] sky130_fd_sc_hd__inv_1
XFILLER_44_109 VGND VPWR VPWR VGND sky130_ef_sc_hd__decap_12
XFILLER_37_161 VPWR VGND VPWR VGND sky130_fd_sc_hd__decap_6
XFILLER_20_65 VGND VPWR VPWR VGND sky130_ef_sc_hd__decap_12
XFILLER_45_51 VGND VPWR VPWR VGND sky130_fd_sc_hd__decap_4
XFILLER_3_293 VPWR VGND VPWR VGND sky130_fd_sc_hd__decap_6
XFILLER_13_3 VGND VPWR VPWR VGND sky130_ef_sc_hd__decap_12
XFILLER_19_161 VPWR VGND VPWR VGND sky130_fd_sc_hd__decap_6
XFILLER_26_109 VGND VPWR VPWR VGND sky130_ef_sc_hd__decap_12
XFILLER_34_153 VGND VPWR VPWR VGND sky130_ef_sc_hd__decap_12
XFILLER_34_197 VGND VPWR VPWR VGND sky130_ef_sc_hd__decap_12
XFILLER_40_189 VPWR VGND VPWR VGND sky130_fd_sc_hd__decap_6
XFILLER_16_153 VPWR VGND VPWR VGND sky130_fd_sc_hd__decap_8
XFILLER_16_175 VPWR VGND VPWR VGND sky130_fd_sc_hd__decap_8
XFILLER_16_197 VGND VPWR VPWR VGND sky130_fd_sc_hd__decap_4
XFILLER_22_189 VPWR VGND VPWR VGND sky130_fd_sc_hd__decap_6
XFILLER_45_237 VGND VPWR VPWR VGND sky130_ef_sc_hd__decap_12
XFILLER_9_105 VPWR VGND VPWR VGND sky130_fd_sc_hd__decap_6
XFILLER_26_53 VGND VPWR VPWR VGND sky130_ef_sc_hd__decap_12
XFILLER_26_97 VGND VPWR VPWR VGND sky130_ef_sc_hd__decap_12
XFILLER_42_85 VGND VPWR VPWR VGND sky130_ef_sc_hd__decap_12
XFILLER_42_41 VGND VPWR VPWR VGND sky130_ef_sc_hd__decap_12
XFILLER_9_149 VGND VPWR VPWR VGND sky130_ef_sc_hd__decap_12
XFILLER_3_57 VGND VPWR VPWR VGND sky130_ef_sc_hd__decap_12
XFILLER_35_281 VGND VPWR VPWR VGND sky130_ef_sc_hd__decap_12
XFILLER_27_237 VPWR VGND VPWR VGND sky130_fd_sc_hd__decap_3
XFILLER_12_77 VPWR VGND VPWR VGND sky130_fd_sc_hd__decap_6
XFILLER_41_273 VPWR VGND VPWR VGND sky130_fd_sc_hd__decap_6
XFILLER_17_281 VGND VPWR VPWR VGND sky130_fd_sc_hd__decap_4
XPHY_EDGE_ROW_12_Right_12 VPWR VGND VPWR VGND sky130_fd_sc_hd__decap_3
XPHY_EDGE_ROW_21_Right_21 VPWR VGND VPWR VGND sky130_fd_sc_hd__decap_3
X_061_ VPWR VGND VPWR VGND _033_ Q[5] sky130_fd_sc_hd__inv_2
XPHY_EDGE_ROW_30_Right_30 VPWR VGND VPWR VGND sky130_fd_sc_hd__decap_3
XFILLER_2_133 VPWR VGND VPWR VGND sky130_fd_sc_hd__decap_6
XFILLER_0_69 VGND VPWR VPWR VGND sky130_ef_sc_hd__decap_12
XFILLER_14_284 VGND VPWR VPWR VGND sky130_ef_sc_hd__decap_12
XFILLER_43_3 VGND VPWR VPWR VGND sky130_ef_sc_hd__decap_12
XFILLER_20_210 VGND VPWR VPWR VGND sky130_ef_sc_hd__decap_12
XFILLER_20_265 VPWR VGND VPWR VGND sky130_fd_sc_hd__decap_8
XFILLER_18_65 VGND VPWR VPWR VGND sky130_ef_sc_hd__decap_12
XFILLER_7_225 VGND VPWR VPWR VGND sky130_ef_sc_hd__decap_12
X_113_ VGND VPWR VGND VPWR Q[0] tap\[18\] tap\[19\] Q[1] tap\[17\] tap\[16\] _027_
+ sky130_fd_sc_hd__mux4_2
XFILLER_34_53 VGND VPWR VPWR VGND sky130_ef_sc_hd__decap_12
XFILLER_34_97 VGND VPWR VPWR VGND sky130_ef_sc_hd__decap_12
XPHY_EDGE_ROW_28_Left_75 VPWR VGND VPWR VGND sky130_fd_sc_hd__decap_3
XPHY_EDGE_ROW_12_Left_59 VPWR VGND VPWR VGND sky130_fd_sc_hd__decap_3
XFILLER_20_77 VPWR VGND VPWR VGND sky130_fd_sc_hd__decap_6
XFILLER_3_261 VGND VPWR VPWR VGND sky130_ef_sc_hd__decap_12
XFILLER_34_121 VGND VPWR VPWR VGND sky130_ef_sc_hd__decap_12
XFILLER_34_165 VGND VPWR VPWR VGND sky130_ef_sc_hd__decap_12
XPHY_EDGE_ROW_6_Right_6 VPWR VGND VPWR VGND sky130_fd_sc_hd__decap_3
XFILLER_0_253 VGND VPWR VPWR VGND sky130_ef_sc_hd__decap_12
XFILLER_16_121 VGND VPWR VPWR VGND sky130_ef_sc_hd__decap_12
Xdelay_chain\[3\].inv_b.core_inv VPWR VGND VGND VPWR d\[3\] tap\[3\] sky130_fd_sc_hd__inv_1
XFILLER_31_113 VGND VPWR VPWR VGND sky130_ef_sc_hd__decap_12
XPHY_EDGE_ROW_15_Left_62 VPWR VGND VPWR VGND sky130_fd_sc_hd__decap_3
XFILLER_45_249 VGND VPWR VPWR VGND sky130_ef_sc_hd__decap_12
XFILLER_45_205 VGND VPWR VPWR VGND sky130_ef_sc_hd__decap_12
XFILLER_42_53 VGND VPWR VPWR VGND sky130_ef_sc_hd__decap_12
XFILLER_13_113 VGND VPWR VPWR VGND sky130_ef_sc_hd__decap_12
XFILLER_26_65 VGND VPWR VPWR VGND sky130_ef_sc_hd__decap_12
XFILLER_42_97 VGND VPWR VPWR VGND sky130_ef_sc_hd__decap_12
XFILLER_3_69 VGND VPWR VPWR VGND sky130_ef_sc_hd__decap_12
XFILLER_35_293 VPWR VGND VPWR VGND sky130_fd_sc_hd__decap_6
XFILLER_6_109 VGND VPWR VPWR VGND sky130_ef_sc_hd__decap_12
XPHY_EDGE_ROW_0_Left_47 VPWR VGND VPWR VGND sky130_fd_sc_hd__decap_3
XFILLER_17_260 VGND VPWR VPWR VGND sky130_ef_sc_hd__decap_12
XPHY_EDGE_ROW_42_Left_89 VPWR VGND VPWR VGND sky130_fd_sc_hd__decap_3
XFILLER_3_3 VGND VPWR VPWR VGND sky130_ef_sc_hd__decap_12
X_060_ VPWR VGND VPWR VGND _032_ Q[4] sky130_fd_sc_hd__inv_2
XFILLER_0_15 VGND VPWR VPWR VGND sky130_ef_sc_hd__decap_12
Xdelay_chain\[8\].inv_b.core_inv VPWR VGND VGND VPWR d\[8\] tap\[8\] sky130_fd_sc_hd__inv_1
XFILLER_9_57 VGND VPWR VPWR VGND sky130_ef_sc_hd__decap_12
XFILLER_14_296 VPWR VGND VPWR VGND sky130_fd_sc_hd__decap_3
XFILLER_36_3 VGND VPWR VPWR VGND sky130_ef_sc_hd__decap_12
XFILLER_20_200 VGND VPWR VPWR VGND sky130_fd_sc_hd__decap_4
XFILLER_20_222 VPWR VGND VPWR VGND sky130_fd_sc_hd__decap_6
XFILLER_18_77 VPWR VGND VPWR VGND sky130_fd_sc_hd__decap_6
XFILLER_7_237 VGND VPWR VPWR VGND sky130_ef_sc_hd__decap_12
X_112_ VGND VPWR VGND VPWR _026_ Q[2] _025_ _030_ sky130_fd_sc_hd__o21a_2
XFILLER_34_65 VGND VPWR VPWR VGND sky130_ef_sc_hd__decap_12
XFILLER_46_141 VGND VPWR VPWR VGND sky130_ef_sc_hd__decap_12
XPHY_EDGE_ROW_3_Left_50 VPWR VGND VPWR VGND sky130_fd_sc_hd__decap_3
XPHY_EDGE_ROW_45_Left_92 VPWR VGND VPWR VGND sky130_fd_sc_hd__decap_3
XFILLER_28_141 VGND VPWR VPWR VGND sky130_ef_sc_hd__decap_12
XFILLER_3_273 VPWR VGND VPWR VGND sky130_fd_sc_hd__decap_6
Xdelay_chain\[12\].genblk1.inv_a.core_inv VPWR VGND VGND VPWR tap\[11\] d\[12\] sky130_fd_sc_hd__inv_1
XFILLER_34_133 VPWR VGND VPWR VGND sky130_fd_sc_hd__decap_6
XFILLER_34_177 VGND VPWR VPWR VGND sky130_ef_sc_hd__decap_12
Xdelay_chain\[21\].genblk1.inv_a.core_inv VPWR VGND VGND VPWR tap\[20\] d\[21\] sky130_fd_sc_hd__inv_1
XFILLER_0_221 VPWR VGND VPWR VGND sky130_fd_sc_hd__decap_3
XFILLER_0_265 VGND VPWR VPWR VGND sky130_ef_sc_hd__decap_12
XFILLER_16_133 VPWR VGND VPWR VGND sky130_fd_sc_hd__decap_6
Xdelay_chain\[30\].genblk1.inv_a.core_inv VPWR VGND VGND VPWR tap\[29\] d\[30\] sky130_fd_sc_hd__inv_1
XFILLER_16_188 VPWR VGND VPWR VGND sky130_fd_sc_hd__decap_8
XFILLER_31_125 VGND VPWR VPWR VGND sky130_ef_sc_hd__decap_12
XFILLER_31_169 VGND VPWR VPWR VGND sky130_ef_sc_hd__decap_12
XFILLER_39_225 VGND VPWR VPWR VGND sky130_ef_sc_hd__decap_12
Xdelay_chain\[61\].inv_b.core_inv VPWR VGND VGND VPWR d\[61\] tap\[61\] sky130_fd_sc_hd__inv_1
XFILLER_45_217 VPWR VGND VPWR VGND sky130_fd_sc_hd__decap_6
XFILLER_42_65 VGND VPWR VPWR VGND sky130_ef_sc_hd__decap_12
XFILLER_13_125 VGND VPWR VPWR VGND sky130_ef_sc_hd__decap_12
XFILLER_13_169 VGND VPWR VPWR VGND sky130_ef_sc_hd__decap_12
XFILLER_26_77 VPWR VGND VPWR VGND sky130_fd_sc_hd__decap_6
XFILLER_3_15 VGND VPWR VPWR VGND sky130_ef_sc_hd__decap_12
XFILLER_42_209 VGND VPWR VPWR VGND sky130_ef_sc_hd__decap_12
XFILLER_35_261 VGND VPWR VPWR VGND sky130_ef_sc_hd__decap_12
XFILLER_18_228 VGND VPWR VPWR VGND sky130_ef_sc_hd__decap_12
XFILLER_17_272 VGND VPWR VPWR VGND sky130_fd_sc_hd__decap_4
XFILLER_32_253 VGND VPWR VPWR VGND sky130_ef_sc_hd__decap_12
XFILLER_23_253 VPWR VGND VPWR VGND sky130_fd_sc_hd__decap_8
XFILLER_9_69 VGND VPWR VPWR VGND sky130_ef_sc_hd__decap_12
XFILLER_29_3 VGND VPWR VPWR VGND sky130_ef_sc_hd__decap_12
XFILLER_34_77 VPWR VGND VPWR VGND sky130_fd_sc_hd__decap_6
XFILLER_7_249 VGND VPWR VPWR VGND sky130_ef_sc_hd__decap_12
XFILLER_7_205 VGND VPWR VPWR VGND sky130_ef_sc_hd__decap_12
X_111_ VGND VPWR VPWR VGND _025_ tap\[23\] Q[0] tap\[22\] sky130_fd_sc_hd__mux2_1
XFILLER_38_109 VGND VPWR VPWR VGND sky130_ef_sc_hd__decap_12
XFILLER_46_197 VGND VPWR VPWR VGND sky130_ef_sc_hd__decap_12
XFILLER_46_153 VGND VPWR VPWR VGND sky130_ef_sc_hd__decap_12
XFILLER_1_81 VGND VPWR VPWR VGND sky130_ef_sc_hd__decap_12
Xdelay_chain\[52\].inv_b.core_inv VPWR VGND VGND VPWR d\[52\] tap\[52\] sky130_fd_sc_hd__inv_1
XFILLER_28_153 VGND VPWR VPWR VGND sky130_ef_sc_hd__decap_12
XFILLER_28_197 VGND VPWR VPWR VGND sky130_ef_sc_hd__decap_12
XFILLER_6_15 VGND VPWR VPWR VGND sky130_ef_sc_hd__decap_12
XFILLER_34_189 VPWR VGND VPWR VGND sky130_fd_sc_hd__decap_6
XFILLER_15_57 VGND VPWR VPWR VGND sky130_ef_sc_hd__decap_12
XFILLER_0_277 VPWR VGND VPWR VGND sky130_fd_sc_hd__decap_3
XFILLER_31_137 VGND VPWR VPWR VGND sky130_ef_sc_hd__decap_12
XFILLER_39_237 VGND VPWR VPWR VGND sky130_ef_sc_hd__decap_12
XFILLER_11_3 VGND VPWR VPWR VGND sky130_ef_sc_hd__decap_12
XFILLER_42_77 VPWR VGND VPWR VGND sky130_fd_sc_hd__decap_6
XFILLER_13_137 VGND VPWR VPWR VGND sky130_ef_sc_hd__decap_12
Xdelay_chain\[49\].genblk1.inv_a.core_inv VPWR VGND VGND VPWR tap\[48\] d\[49\] sky130_fd_sc_hd__inv_1
XFILLER_3_27 VGND VPWR VPWR VGND sky130_ef_sc_hd__decap_12
XFILLER_29_281 VGND VPWR VPWR VGND sky130_ef_sc_hd__decap_12
XFILLER_8_141 VGND VPWR VPWR VGND sky130_ef_sc_hd__decap_12
Xdelay_chain\[58\].genblk1.inv_a.core_inv VPWR VGND VGND VPWR tap\[57\] d\[58\] sky130_fd_sc_hd__inv_1
XFILLER_35_273 VPWR VGND VPWR VGND sky130_fd_sc_hd__decap_6
Xdelay_chain\[57\].inv_b.core_inv VPWR VGND VGND VPWR d\[57\] tap\[57\] sky130_fd_sc_hd__inv_1
XFILLER_32_221 VGND VPWR VPWR VGND sky130_ef_sc_hd__decap_12
XFILLER_32_265 VGND VPWR VPWR VGND sky130_ef_sc_hd__decap_12
XFILLER_23_57 VGND VPWR VPWR VGND sky130_ef_sc_hd__decap_12
XFILLER_9_15 VGND VPWR VPWR VGND sky130_ef_sc_hd__decap_12
XFILLER_14_221 VGND VPWR VPWR VGND sky130_ef_sc_hd__decap_12
Xdelay_chain\[43\].inv_b.core_inv VPWR VGND VGND VPWR d\[43\] tap\[43\] sky130_fd_sc_hd__inv_1
XFILLER_20_235 VPWR VGND VPWR VGND sky130_fd_sc_hd__decap_8
Xdelay_chain\[5\].genblk1.inv_a.core_inv VPWR VGND VGND VPWR tap\[4\] d\[5\] sky130_fd_sc_hd__inv_1
X_110_ VPWR VGND VPWR VGND _024_ Q[1] _023_ sky130_fd_sc_hd__or2_2
XFILLER_7_217 VPWR VGND VPWR VGND sky130_fd_sc_hd__decap_6
XFILLER_46_165 VPWR VGND VPWR VGND sky130_fd_sc_hd__decap_3
XFILLER_41_3 VGND VPWR VPWR VGND sky130_ef_sc_hd__decap_12
XFILLER_1_93 VGND VPWR VPWR VGND sky130_ef_sc_hd__decap_12
XFILLER_4_209 VGND VPWR VPWR VGND sky130_ef_sc_hd__decap_12
XFILLER_43_113 VGND VPWR VPWR VGND sky130_ef_sc_hd__decap_12
XFILLER_28_121 VGND VPWR VPWR VGND sky130_ef_sc_hd__decap_12
XFILLER_28_165 VGND VPWR VPWR VGND sky130_ef_sc_hd__decap_12
XFILLER_25_113 VGND VPWR VPWR VGND sky130_ef_sc_hd__decap_12