.subckt cm_ota_extracted ID VOUT VINN VINP VSS VDD
* SPICE3 file created from CURRENT_MIRROR_OTA_0.ext - technology: sky130A

X0 VDD m1_6966_4088# VOUT VDD sky130_fd_pr__pfet_01v8 ad=0.0588 pd=0.7 as=0.0588 ps=0.7 w=0.42 l=0.15
X1 VOUT m1_6966_4088# VDD VDD sky130_fd_pr__pfet_01v8 ad=0.0588 pd=0.7 as=0.0588 ps=0.7 w=0.42 l=0.15
X2 VDD m1_6966_4088# VOUT VDD sky130_fd_pr__pfet_01v8 ad=0.0588 pd=0.7 as=0.0588 ps=0.7 w=0.42 l=0.15
X3 VOUT m1_6966_4088# VDD VDD sky130_fd_pr__pfet_01v8 ad=0.0588 pd=0.7 as=0.111 ps=1.37 w=0.42 l=0.15
X4 VDD m1_6966_4088# VOUT VDD sky130_fd_pr__pfet_01v8 ad=0.0588 pd=0.7 as=0.0588 ps=0.7 w=0.42 l=0.15
X5 VDD m1_6966_4088# VOUT VDD sky130_fd_pr__pfet_01v8 ad=0.0588 pd=0.7 as=0.0588 ps=0.7 w=0.42 l=0.15
X6 VOUT m1_6966_4088# VDD VDD sky130_fd_pr__pfet_01v8 ad=0.0588 pd=0.7 as=0.0588 ps=0.7 w=0.42 l=0.15
X7 VOUT m1_6966_4088# VDD VDD sky130_fd_pr__pfet_01v8 ad=0.0588 pd=0.7 as=0.0588 ps=0.7 w=0.42 l=0.15
X8 VOUT m1_6966_4088# VDD VDD sky130_fd_pr__pfet_01v8 ad=0.0588 pd=0.7 as=0.0588 ps=0.7 w=0.42 l=0.15
X9 VDD m1_6966_4088# VOUT VDD sky130_fd_pr__pfet_01v8 ad=0.0588 pd=0.7 as=0.0588 ps=0.7 w=0.42 l=0.15
X10 VOUT m1_6966_4088# VDD VDD sky130_fd_pr__pfet_01v8 ad=0.0588 pd=0.7 as=0.0588 ps=0.7 w=0.42 l=0.15
X11 VDD m1_6966_4088# VOUT VDD sky130_fd_pr__pfet_01v8 ad=0.0588 pd=0.7 as=0.0588 ps=0.7 w=0.42 l=0.15
X12 VDD m1_6966_4088# VOUT VDD sky130_fd_pr__pfet_01v8 ad=0.0588 pd=0.7 as=0.0588 ps=0.7 w=0.42 l=0.15
X13 VOUT m1_6966_4088# VDD VDD sky130_fd_pr__pfet_01v8 ad=0.0588 pd=0.7 as=0.0588 ps=0.7 w=0.42 l=0.15
X14 VOUT m1_6966_4088# VDD VDD sky130_fd_pr__pfet_01v8 ad=0.0588 pd=0.7 as=0.0588 ps=0.7 w=0.42 l=0.15
X15 VOUT m1_6966_4088# VDD VDD sky130_fd_pr__pfet_01v8 ad=0.0588 pd=0.7 as=0.0588 ps=0.7 w=0.42 l=0.15
X16 VDD m1_6966_4088# VOUT VDD sky130_fd_pr__pfet_01v8 ad=0.0588 pd=0.7 as=0.0588 ps=0.7 w=0.42 l=0.15
X17 VDD m1_6966_4088# VOUT VDD sky130_fd_pr__pfet_01v8 ad=0.0588 pd=0.7 as=0.0588 ps=0.7 w=0.42 l=0.15
X18 VOUT m1_6966_4088# VDD VDD sky130_fd_pr__pfet_01v8 ad=0.0588 pd=0.7 as=0.0588 ps=0.7 w=0.42 l=0.15
X19 VDD m1_6966_4088# VOUT VDD sky130_fd_pr__pfet_01v8 ad=0.0588 pd=0.7 as=0.0588 ps=0.7 w=0.42 l=0.15
X20 VOUT m1_6966_4088# VDD VDD sky130_fd_pr__pfet_01v8 ad=0.0588 pd=0.7 as=0.0588 ps=0.7 w=0.42 l=0.15
X21 VOUT m1_6966_4088# VDD VDD sky130_fd_pr__pfet_01v8 ad=0.0588 pd=0.7 as=0.0588 ps=0.7 w=0.42 l=0.15
X22 VOUT m1_6966_4088# VDD VDD sky130_fd_pr__pfet_01v8 ad=0.0588 pd=0.7 as=0.0588 ps=0.7 w=0.42 l=0.15
X23 VDD m1_6966_4088# VOUT VDD sky130_fd_pr__pfet_01v8 ad=0.0588 pd=0.7 as=0.0588 ps=0.7 w=0.42 l=0.15
X24 VDD m1_6966_4088# VOUT VDD sky130_fd_pr__pfet_01v8 ad=0.0588 pd=0.7 as=0.0588 ps=0.7 w=0.42 l=0.15
X25 VOUT m1_6966_4088# VDD VDD sky130_fd_pr__pfet_01v8 ad=0.0588 pd=0.7 as=0.0588 ps=0.7 w=0.42 l=0.15
X26 VOUT m1_6966_4088# VDD VDD sky130_fd_pr__pfet_01v8 ad=0.0588 pd=0.7 as=0.0588 ps=0.7 w=0.42 l=0.15
X27 VOUT m1_6966_4088# VDD VDD sky130_fd_pr__pfet_01v8 ad=0.0588 pd=0.7 as=0.0588 ps=0.7 w=0.42 l=0.15
X28 VOUT m1_6966_4088# VDD VDD sky130_fd_pr__pfet_01v8 ad=0.0588 pd=0.7 as=0.0588 ps=0.7 w=0.42 l=0.15
X29 VDD m1_6966_4088# VOUT VDD sky130_fd_pr__pfet_01v8 ad=0.0588 pd=0.7 as=0.0588 ps=0.7 w=0.42 l=0.15
X30 VDD m1_6966_4088# VOUT VDD sky130_fd_pr__pfet_01v8 ad=0.0588 pd=0.7 as=0.0588 ps=0.7 w=0.42 l=0.15
X31 VOUT m1_6966_4088# VDD VDD sky130_fd_pr__pfet_01v8 ad=0.0588 pd=0.7 as=0.0588 ps=0.7 w=0.42 l=0.15
X32 VDD m1_6966_4088# VOUT VDD sky130_fd_pr__pfet_01v8 ad=0.0588 pd=0.7 as=0.0588 ps=0.7 w=0.42 l=0.15
X33 VDD m1_6966_4088# VOUT VDD sky130_fd_pr__pfet_01v8 ad=0.0588 pd=0.7 as=0.0588 ps=0.7 w=0.42 l=0.15
X34 VDD m1_6966_4088# VOUT VDD sky130_fd_pr__pfet_01v8 ad=0.0588 pd=0.7 as=0.0588 ps=0.7 w=0.42 l=0.15
X35 VDD m1_6966_4088# VOUT VDD sky130_fd_pr__pfet_01v8 ad=0.0588 pd=0.7 as=0.0588 ps=0.7 w=0.42 l=0.15
X36 VDD m1_6966_4088# VOUT VDD sky130_fd_pr__pfet_01v8 ad=0.0588 pd=0.7 as=0.0588 ps=0.7 w=0.42 l=0.15
X37 VOUT m1_6966_4088# VDD VDD sky130_fd_pr__pfet_01v8 ad=0.0588 pd=0.7 as=0.0588 ps=0.7 w=0.42 l=0.15
X38 VDD m1_6966_4088# VOUT VDD sky130_fd_pr__pfet_01v8 ad=0.0588 pd=0.7 as=0.0588 ps=0.7 w=0.42 l=0.15
X39 VOUT m1_6966_4088# VDD VDD sky130_fd_pr__pfet_01v8 ad=0.0588 pd=0.7 as=0.0588 ps=0.7 w=0.42 l=0.15
X40 VOUT m1_6966_4088# VDD VDD sky130_fd_pr__pfet_01v8 ad=0.0588 pd=0.7 as=0.111 ps=1.37 w=0.42 l=0.15
X41 VOUT m1_6966_4088# VDD VDD sky130_fd_pr__pfet_01v8 ad=0.0588 pd=0.7 as=0.0588 ps=0.7 w=0.42 l=0.15
X42 VDD m1_6966_4088# VOUT VDD sky130_fd_pr__pfet_01v8 ad=0.0588 pd=0.7 as=0.0588 ps=0.7 w=0.42 l=0.15
X43 VDD m1_6966_4088# VOUT VDD sky130_fd_pr__pfet_01v8 ad=0.0588 pd=0.7 as=0.0588 ps=0.7 w=0.42 l=0.15
X44 VOUT m1_6966_4088# VDD VDD sky130_fd_pr__pfet_01v8 ad=0.0588 pd=0.7 as=0.0588 ps=0.7 w=0.42 l=0.15
X45 VDD m1_6966_4088# VOUT VDD sky130_fd_pr__pfet_01v8 ad=0.0588 pd=0.7 as=0.0588 ps=0.7 w=0.42 l=0.15
X46 VOUT m1_6966_4088# VDD VDD sky130_fd_pr__pfet_01v8 ad=0.0588 pd=0.7 as=0.0588 ps=0.7 w=0.42 l=0.15
X47 VDD m1_6966_4088# VOUT VDD sky130_fd_pr__pfet_01v8 ad=0.0588 pd=0.7 as=0.0588 ps=0.7 w=0.42 l=0.15
X48 VOUT m1_6966_4088# VDD VDD sky130_fd_pr__pfet_01v8 ad=0.0588 pd=0.7 as=0.0588 ps=0.7 w=0.42 l=0.15
X49 VDD m1_6966_4088# VOUT VDD sky130_fd_pr__pfet_01v8 ad=0.111 pd=1.37 as=0.0588 ps=0.7 w=0.42 l=0.15
X50 VOUT m1_6966_4088# VDD VDD sky130_fd_pr__pfet_01v8 ad=0.0588 pd=0.7 as=0.0588 ps=0.7 w=0.42 l=0.15
X51 VDD m1_6966_4088# VOUT VDD sky130_fd_pr__pfet_01v8 ad=0.0588 pd=0.7 as=0.0588 ps=0.7 w=0.42 l=0.15
X52 VOUT m1_6966_4088# VDD VDD sky130_fd_pr__pfet_01v8 ad=0.0588 pd=0.7 as=0.0588 ps=0.7 w=0.42 l=0.15
X53 VOUT m1_6966_4088# VDD VDD sky130_fd_pr__pfet_01v8 ad=0.0588 pd=0.7 as=0.0588 ps=0.7 w=0.42 l=0.15
X54 VDD m1_6966_4088# VOUT VDD sky130_fd_pr__pfet_01v8 ad=0.0588 pd=0.7 as=0.0588 ps=0.7 w=0.42 l=0.15
X55 VDD m1_6966_4088# VOUT VDD sky130_fd_pr__pfet_01v8 ad=0.111 pd=1.37 as=0.0588 ps=0.7 w=0.42 l=0.15
X56 VDD m1_6966_4088# VOUT VDD sky130_fd_pr__pfet_01v8 ad=0.0588 pd=0.7 as=0.0588 ps=0.7 w=0.42 l=0.15
X57 VOUT m1_6966_4088# VDD VDD sky130_fd_pr__pfet_01v8 ad=0.0588 pd=0.7 as=0.0588 ps=0.7 w=0.42 l=0.15
X58 VDD m1_6966_4088# VOUT VDD sky130_fd_pr__pfet_01v8 ad=0.0588 pd=0.7 as=0.0588 ps=0.7 w=0.42 l=0.15
X59 VOUT m1_6966_4088# VDD VDD sky130_fd_pr__pfet_01v8 ad=0.0588 pd=0.7 as=0.0588 ps=0.7 w=0.42 l=0.15
X60 VDD m1_6966_4088# m1_6966_4088# VDD sky130_fd_pr__pfet_01v8 ad=0.0588 pd=0.7 as=0.0588 ps=0.7 w=0.42 l=0.15
X61 VDD m1_6966_4088# m1_6966_4088# VDD sky130_fd_pr__pfet_01v8 ad=0.0588 pd=0.7 as=0.0588 ps=0.7 w=0.42 l=0.15
X62 m1_6966_4088# m1_6966_4088# VDD VDD sky130_fd_pr__pfet_01v8 ad=0.0588 pd=0.7 as=0.0588 ps=0.7 w=0.42 l=0.15
X63 m1_6966_4088# m1_6966_4088# VDD VDD sky130_fd_pr__pfet_01v8 ad=0.0588 pd=0.7 as=0.0588 ps=0.7 w=0.42 l=0.15
X64 VDD m1_6966_4088# m1_6966_4088# VDD sky130_fd_pr__pfet_01v8 ad=0.111 pd=1.37 as=0.0588 ps=0.7 w=0.42 l=0.15
X65 m1_6966_4088# m1_6966_4088# VDD VDD sky130_fd_pr__pfet_01v8 ad=0.0588 pd=0.7 as=0.111 ps=1.37 w=0.42 l=0.15
X66 VDD m1_6966_4088# m1_6966_4088# VDD sky130_fd_pr__pfet_01v8 ad=0.0588 pd=0.7 as=0.0588 ps=0.7 w=0.42 l=0.15
X67 VDD m1_6966_4088# m1_6966_4088# VDD sky130_fd_pr__pfet_01v8 ad=0.0588 pd=0.7 as=0.0588 ps=0.7 w=0.42 l=0.15
X68 m1_6966_4088# m1_6966_4088# VDD VDD sky130_fd_pr__pfet_01v8 ad=0.0588 pd=0.7 as=0.0588 ps=0.7 w=0.42 l=0.15
X69 m1_6966_4088# m1_6966_4088# VDD VDD sky130_fd_pr__pfet_01v8 ad=0.0588 pd=0.7 as=0.0588 ps=0.7 w=0.42 l=0.15
X70 VSS ID ID VSS sky130_fd_pr__nfet_01v8 ad=0.0588 pd=0.7 as=0.0588 ps=0.7 w=0.42 l=0.15
X71 ID ID VSS VSS sky130_fd_pr__nfet_01v8 ad=0.0588 pd=0.7 as=0.0588 ps=0.7 w=0.42 l=0.15
X72 ID ID VSS VSS sky130_fd_pr__nfet_01v8 ad=0.0588 pd=0.7 as=0.0588 ps=0.7 w=0.42 l=0.15
X73 ID ID VSS VSS sky130_fd_pr__nfet_01v8 ad=0.0588 pd=0.7 as=0.0588 ps=0.7 w=0.42 l=0.15
X74 VSS ID ID VSS sky130_fd_pr__nfet_01v8 ad=0.0588 pd=0.7 as=0.0588 ps=0.7 w=0.42 l=0.15
X75 VSS ID ID VSS sky130_fd_pr__nfet_01v8 ad=0.0588 pd=0.7 as=0.0588 ps=0.7 w=0.42 l=0.15
X76 ID ID VSS VSS sky130_fd_pr__nfet_01v8 ad=0.0588 pd=0.7 as=0.0588 ps=0.7 w=0.42 l=0.15
X77 VSS ID ID VSS sky130_fd_pr__nfet_01v8 ad=0.0588 pd=0.7 as=0.0588 ps=0.7 w=0.42 l=0.15
X78 ID ID VSS VSS sky130_fd_pr__nfet_01v8 ad=0.0588 pd=0.7 as=0.0588 ps=0.7 w=0.42 l=0.15
X79 VSS ID ID VSS sky130_fd_pr__nfet_01v8 ad=0.0588 pd=0.7 as=0.0588 ps=0.7 w=0.42 l=0.15
X80 ID ID VSS VSS sky130_fd_pr__nfet_01v8 ad=0.0588 pd=0.7 as=0.0588 ps=0.7 w=0.42 l=0.15
X81 VSS ID ID VSS sky130_fd_pr__nfet_01v8 ad=0.0588 pd=0.7 as=0.0588 ps=0.7 w=0.42 l=0.15
X82 ID ID VSS VSS sky130_fd_pr__nfet_01v8 ad=0.0588 pd=0.7 as=0.111 ps=1.37 w=0.42 l=0.15
X83 VSS ID ID VSS sky130_fd_pr__nfet_01v8 ad=0.0588 pd=0.7 as=0.0588 ps=0.7 w=0.42 l=0.15
X84 VSS ID ID VSS sky130_fd_pr__nfet_01v8 ad=0.0588 pd=0.7 as=0.0588 ps=0.7 w=0.42 l=0.15
X85 ID ID VSS VSS sky130_fd_pr__nfet_01v8 ad=0.0588 pd=0.7 as=0.0588 ps=0.7 w=0.42 l=0.15
X86 ID ID VSS VSS sky130_fd_pr__nfet_01v8 ad=0.0588 pd=0.7 as=0.0588 ps=0.7 w=0.42 l=0.15
X87 ID ID VSS VSS sky130_fd_pr__nfet_01v8 ad=0.0588 pd=0.7 as=0.0588 ps=0.7 w=0.42 l=0.15
X88 ID ID VSS VSS sky130_fd_pr__nfet_01v8 ad=0.0588 pd=0.7 as=0.0588 ps=0.7 w=0.42 l=0.15
X89 VSS ID ID VSS sky130_fd_pr__nfet_01v8 ad=0.0588 pd=0.7 as=0.0588 ps=0.7 w=0.42 l=0.15
X90 VSS ID ID VSS sky130_fd_pr__nfet_01v8 ad=0.0588 pd=0.7 as=0.0588 ps=0.7 w=0.42 l=0.15
X91 ID ID VSS VSS sky130_fd_pr__nfet_01v8 ad=0.0588 pd=0.7 as=0.0588 ps=0.7 w=0.42 l=0.15
X92 VSS ID ID VSS sky130_fd_pr__nfet_01v8 ad=0.0588 pd=0.7 as=0.0588 ps=0.7 w=0.42 l=0.15
X93 ID ID VSS VSS sky130_fd_pr__nfet_01v8 ad=0.0588 pd=0.7 as=0.0588 ps=0.7 w=0.42 l=0.15
X94 VSS ID ID VSS sky130_fd_pr__nfet_01v8 ad=0.0588 pd=0.7 as=0.0588 ps=0.7 w=0.42 l=0.15
X95 ID ID VSS VSS sky130_fd_pr__nfet_01v8 ad=0.0588 pd=0.7 as=0.0588 ps=0.7 w=0.42 l=0.15
X96 ID ID VSS VSS sky130_fd_pr__nfet_01v8 ad=0.0588 pd=0.7 as=0.0588 ps=0.7 w=0.42 l=0.15
X97 VSS ID ID VSS sky130_fd_pr__nfet_01v8 ad=0.0588 pd=0.7 as=0.0588 ps=0.7 w=0.42 l=0.15
X98 ID ID VSS VSS sky130_fd_pr__nfet_01v8 ad=0.0588 pd=0.7 as=0.0588 ps=0.7 w=0.42 l=0.15
X99 ID ID VSS VSS sky130_fd_pr__nfet_01v8 ad=0.0588 pd=0.7 as=0.0588 ps=0.7 w=0.42 l=0.15
X100 VSS ID ID VSS sky130_fd_pr__nfet_01v8 ad=0.0588 pd=0.7 as=0.0588 ps=0.7 w=0.42 l=0.15
X101 ID ID VSS VSS sky130_fd_pr__nfet_01v8 ad=0.0588 pd=0.7 as=0.0588 ps=0.7 w=0.42 l=0.15
X102 VSS ID ID VSS sky130_fd_pr__nfet_01v8 ad=0.0588 pd=0.7 as=0.0588 ps=0.7 w=0.42 l=0.15
X103 ID ID VSS VSS sky130_fd_pr__nfet_01v8 ad=0.0588 pd=0.7 as=0.0588 ps=0.7 w=0.42 l=0.15
X104 VSS ID ID VSS sky130_fd_pr__nfet_01v8 ad=0.0588 pd=0.7 as=0.0588 ps=0.7 w=0.42 l=0.15
X105 ID ID VSS VSS sky130_fd_pr__nfet_01v8 ad=0.0588 pd=0.7 as=0.0588 ps=0.7 w=0.42 l=0.15
X106 ID ID VSS VSS sky130_fd_pr__nfet_01v8 ad=0.0588 pd=0.7 as=0.0588 ps=0.7 w=0.42 l=0.15
X107 ID ID VSS VSS sky130_fd_pr__nfet_01v8 ad=0.0588 pd=0.7 as=0.0588 ps=0.7 w=0.42 l=0.15
X108 VSS ID ID VSS sky130_fd_pr__nfet_01v8 ad=0.0588 pd=0.7 as=0.0588 ps=0.7 w=0.42 l=0.15
X109 VSS ID ID VSS sky130_fd_pr__nfet_01v8 ad=0.0588 pd=0.7 as=0.0588 ps=0.7 w=0.42 l=0.15
X110 ID ID VSS VSS sky130_fd_pr__nfet_01v8 ad=0.0588 pd=0.7 as=0.0588 ps=0.7 w=0.42 l=0.15
X111 VSS ID ID VSS sky130_fd_pr__nfet_01v8 ad=0.0588 pd=0.7 as=0.0588 ps=0.7 w=0.42 l=0.15
X112 VSS ID ID VSS sky130_fd_pr__nfet_01v8 ad=0.111 pd=1.37 as=0.0588 ps=0.7 w=0.42 l=0.15
X113 VSS ID ID VSS sky130_fd_pr__nfet_01v8 ad=0.0588 pd=0.7 as=0.0588 ps=0.7 w=0.42 l=0.15
X114 VSS ID ID VSS sky130_fd_pr__nfet_01v8 ad=0.0588 pd=0.7 as=0.0588 ps=0.7 w=0.42 l=0.15
X115 VSS ID ID VSS sky130_fd_pr__nfet_01v8 ad=0.0588 pd=0.7 as=0.0588 ps=0.7 w=0.42 l=0.15
X116 ID ID VSS VSS sky130_fd_pr__nfet_01v8 ad=0.0588 pd=0.7 as=0.0588 ps=0.7 w=0.42 l=0.15
X117 VSS ID ID VSS sky130_fd_pr__nfet_01v8 ad=0.0588 pd=0.7 as=0.0588 ps=0.7 w=0.42 l=0.15
X118 VSS ID ID VSS sky130_fd_pr__nfet_01v8 ad=0.0588 pd=0.7 as=0.0588 ps=0.7 w=0.42 l=0.15
X119 ID ID VSS VSS sky130_fd_pr__nfet_01v8 ad=0.0588 pd=0.7 as=0.111 ps=1.37 w=0.42 l=0.15
X120 VSS ID ID VSS sky130_fd_pr__nfet_01v8 ad=0.0588 pd=0.7 as=0.0588 ps=0.7 w=0.42 l=0.15
X121 ID ID VSS VSS sky130_fd_pr__nfet_01v8 ad=0.0588 pd=0.7 as=0.0588 ps=0.7 w=0.42 l=0.15
X122 VSS ID ID VSS sky130_fd_pr__nfet_01v8 ad=0.0588 pd=0.7 as=0.0588 ps=0.7 w=0.42 l=0.15
X123 ID ID VSS VSS sky130_fd_pr__nfet_01v8 ad=0.0588 pd=0.7 as=0.0588 ps=0.7 w=0.42 l=0.15
X124 VSS ID ID VSS sky130_fd_pr__nfet_01v8 ad=0.111 pd=1.37 as=0.0588 ps=0.7 w=0.42 l=0.15
X125 ID ID VSS VSS sky130_fd_pr__nfet_01v8 ad=0.0588 pd=0.7 as=0.0588 ps=0.7 w=0.42 l=0.15
X126 VDD m1_3838_4088# m1_2204_8288# VDD sky130_fd_pr__pfet_01v8 ad=8.86 pd=106 as=3.53 ps=42 w=0.42 l=0.15
X127 m1_2204_8288# m1_3838_4088# VDD VDD sky130_fd_pr__pfet_01v8 ad=0 pd=0 as=0 ps=0 w=0.42 l=0.15
X128 VDD m1_3838_4088# m1_2204_8288# VDD sky130_fd_pr__pfet_01v8 ad=0 pd=0 as=0 ps=0 w=0.42 l=0.15
X129 m1_2204_8288# m1_3838_4088# VDD VDD sky130_fd_pr__pfet_01v8 ad=0 pd=0 as=0 ps=0 w=0.42 l=0.15
X130 VDD m1_3838_4088# m1_2204_8288# VDD sky130_fd_pr__pfet_01v8 ad=0 pd=0 as=0 ps=0 w=0.42 l=0.15
X131 VDD m1_3838_4088# m1_2204_8288# VDD sky130_fd_pr__pfet_01v8 ad=0 pd=0 as=0 ps=0 w=0.42 l=0.15
X132 m1_2204_8288# m1_3838_4088# VDD VDD sky130_fd_pr__pfet_01v8 ad=0 pd=0 as=0 ps=0 w=0.42 l=0.15
X133 m1_2204_8288# m1_3838_4088# VDD VDD sky130_fd_pr__pfet_01v8 ad=0 pd=0 as=0 ps=0 w=0.42 l=0.15
X134 m1_2204_8288# m1_3838_4088# VDD VDD sky130_fd_pr__pfet_01v8 ad=0 pd=0 as=0 ps=0 w=0.42 l=0.15
X135 VDD m1_3838_4088# m1_2204_8288# VDD sky130_fd_pr__pfet_01v8 ad=0 pd=0 as=0 ps=0 w=0.42 l=0.15
X136 m1_2204_8288# m1_3838_4088# VDD VDD sky130_fd_pr__pfet_01v8 ad=0 pd=0 as=0 ps=0 w=0.42 l=0.15
X137 VDD m1_3838_4088# m1_2204_8288# VDD sky130_fd_pr__pfet_01v8 ad=0 pd=0 as=0 ps=0 w=0.42 l=0.15
X138 VDD m1_3838_4088# m1_2204_8288# VDD sky130_fd_pr__pfet_01v8 ad=0 pd=0 as=0 ps=0 w=0.42 l=0.15
X139 m1_2204_8288# m1_3838_4088# VDD VDD sky130_fd_pr__pfet_01v8 ad=0 pd=0 as=0 ps=0 w=0.42 l=0.15
X140 m1_2204_8288# m1_3838_4088# VDD VDD sky130_fd_pr__pfet_01v8 ad=0 pd=0 as=0 ps=0 w=0.42 l=0.15
X141 m1_2204_8288# m1_3838_4088# VDD VDD sky130_fd_pr__pfet_01v8 ad=0 pd=0 as=0 ps=0 w=0.42 l=0.15
X142 VDD m1_3838_4088# m1_2204_8288# VDD sky130_fd_pr__pfet_01v8 ad=0 pd=0 as=0 ps=0 w=0.42 l=0.15
X143 VDD m1_3838_4088# m1_2204_8288# VDD sky130_fd_pr__pfet_01v8 ad=0 pd=0 as=0 ps=0 w=0.42 l=0.15
X144 m1_2204_8288# m1_3838_4088# VDD VDD sky130_fd_pr__pfet_01v8 ad=0 pd=0 as=0 ps=0 w=0.42 l=0.15
X145 VDD m1_3838_4088# m1_2204_8288# VDD sky130_fd_pr__pfet_01v8 ad=0 pd=0 as=0 ps=0 w=0.42 l=0.15
X146 m1_2204_8288# m1_3838_4088# VDD VDD sky130_fd_pr__pfet_01v8 ad=0 pd=0 as=0 ps=0 w=0.42 l=0.15
X147 m1_2204_8288# m1_3838_4088# VDD VDD sky130_fd_pr__pfet_01v8 ad=0 pd=0 as=0 ps=0 w=0.42 l=0.15
X148 m1_2204_8288# m1_3838_4088# VDD VDD sky130_fd_pr__pfet_01v8 ad=0 pd=0 as=0 ps=0 w=0.42 l=0.15
X149 VDD m1_3838_4088# m1_2204_8288# VDD sky130_fd_pr__pfet_01v8 ad=0 pd=0 as=0 ps=0 w=0.42 l=0.15
X150 VDD m1_3838_4088# m1_2204_8288# VDD sky130_fd_pr__pfet_01v8 ad=0 pd=0 as=0 ps=0 w=0.42 l=0.15
X151 m1_2204_8288# m1_3838_4088# VDD VDD sky130_fd_pr__pfet_01v8 ad=0 pd=0 as=0 ps=0 w=0.42 l=0.15
X152 m1_2204_8288# m1_3838_4088# VDD VDD sky130_fd_pr__pfet_01v8 ad=0 pd=0 as=0 ps=0 w=0.42 l=0.15
X153 m1_2204_8288# m1_3838_4088# VDD VDD sky130_fd_pr__pfet_01v8 ad=0 pd=0 as=0 ps=0 w=0.42 l=0.15
X154 m1_2204_8288# m1_3838_4088# VDD VDD sky130_fd_pr__pfet_01v8 ad=0 pd=0 as=0 ps=0 w=0.42 l=0.15
X155 VDD m1_3838_4088# m1_2204_8288# VDD sky130_fd_pr__pfet_01v8 ad=0 pd=0 as=0 ps=0 w=0.42 l=0.15
X156 VDD m1_3838_4088# m1_2204_8288# VDD sky130_fd_pr__pfet_01v8 ad=0 pd=0 as=0 ps=0 w=0.42 l=0.15
X157 m1_2204_8288# m1_3838_4088# VDD VDD sky130_fd_pr__pfet_01v8 ad=0 pd=0 as=0 ps=0 w=0.42 l=0.15
X158 VDD m1_3838_4088# m1_2204_8288# VDD sky130_fd_pr__pfet_01v8 ad=0 pd=0 as=0 ps=0 w=0.42 l=0.15
X159 VDD m1_3838_4088# m1_2204_8288# VDD sky130_fd_pr__pfet_01v8 ad=0 pd=0 as=0 ps=0 w=0.42 l=0.15
X160 VDD m1_3838_4088# m1_2204_8288# VDD sky130_fd_pr__pfet_01v8 ad=0 pd=0 as=0 ps=0 w=0.42 l=0.15
X161 VDD m1_3838_4088# m1_2204_8288# VDD sky130_fd_pr__pfet_01v8 ad=0 pd=0 as=0 ps=0 w=0.42 l=0.15
X162 VDD m1_3838_4088# m1_2204_8288# VDD sky130_fd_pr__pfet_01v8 ad=0 pd=0 as=0 ps=0 w=0.42 l=0.15
X163 m1_2204_8288# m1_3838_4088# VDD VDD sky130_fd_pr__pfet_01v8 ad=0 pd=0 as=0 ps=0 w=0.42 l=0.15
X164 VDD m1_3838_4088# m1_2204_8288# VDD sky130_fd_pr__pfet_01v8 ad=0 pd=0 as=0 ps=0 w=0.42 l=0.15
X165 m1_2204_8288# m1_3838_4088# VDD VDD sky130_fd_pr__pfet_01v8 ad=0 pd=0 as=0 ps=0 w=0.42 l=0.15
X166 m1_2204_8288# m1_3838_4088# VDD VDD sky130_fd_pr__pfet_01v8 ad=0 pd=0 as=0 ps=0 w=0.42 l=0.15
X167 m1_2204_8288# m1_3838_4088# VDD VDD sky130_fd_pr__pfet_01v8 ad=0 pd=0 as=0 ps=0 w=0.42 l=0.15
X168 VDD m1_3838_4088# m1_2204_8288# VDD sky130_fd_pr__pfet_01v8 ad=0 pd=0 as=0 ps=0 w=0.42 l=0.15
X169 VDD m1_3838_4088# m1_2204_8288# VDD sky130_fd_pr__pfet_01v8 ad=0 pd=0 as=0 ps=0 w=0.42 l=0.15
X170 m1_2204_8288# m1_3838_4088# VDD VDD sky130_fd_pr__pfet_01v8 ad=0 pd=0 as=0 ps=0 w=0.42 l=0.15
X171 VDD m1_3838_4088# m1_2204_8288# VDD sky130_fd_pr__pfet_01v8 ad=0 pd=0 as=0 ps=0 w=0.42 l=0.15
X172 m1_2204_8288# m1_3838_4088# VDD VDD sky130_fd_pr__pfet_01v8 ad=0 pd=0 as=0 ps=0 w=0.42 l=0.15
X173 VDD m1_3838_4088# m1_2204_8288# VDD sky130_fd_pr__pfet_01v8 ad=0 pd=0 as=0 ps=0 w=0.42 l=0.15
X174 m1_2204_8288# m1_3838_4088# VDD VDD sky130_fd_pr__pfet_01v8 ad=0 pd=0 as=0 ps=0 w=0.42 l=0.15
X175 VDD m1_3838_4088# m1_2204_8288# VDD sky130_fd_pr__pfet_01v8 ad=0 pd=0 as=0 ps=0 w=0.42 l=0.15
X176 m1_2204_8288# m1_3838_4088# VDD VDD sky130_fd_pr__pfet_01v8 ad=0 pd=0 as=0 ps=0 w=0.42 l=0.15
X177 VDD m1_3838_4088# m1_2204_8288# VDD sky130_fd_pr__pfet_01v8 ad=0 pd=0 as=0 ps=0 w=0.42 l=0.15
X178 m1_2204_8288# m1_3838_4088# VDD VDD sky130_fd_pr__pfet_01v8 ad=0 pd=0 as=0 ps=0 w=0.42 l=0.15
X179 m1_2204_8288# m1_3838_4088# VDD VDD sky130_fd_pr__pfet_01v8 ad=0 pd=0 as=0 ps=0 w=0.42 l=0.15
X180 VDD m1_3838_4088# m1_2204_8288# VDD sky130_fd_pr__pfet_01v8 ad=0 pd=0 as=0 ps=0 w=0.42 l=0.15
X181 VDD m1_3838_4088# m1_2204_8288# VDD sky130_fd_pr__pfet_01v8 ad=0 pd=0 as=0 ps=0 w=0.42 l=0.15
X182 VDD m1_3838_4088# m1_2204_8288# VDD sky130_fd_pr__pfet_01v8 ad=0 pd=0 as=0 ps=0 w=0.42 l=0.15
X183 m1_2204_8288# m1_3838_4088# VDD VDD sky130_fd_pr__pfet_01v8 ad=0 pd=0 as=0 ps=0 w=0.42 l=0.15
X184 VDD m1_3838_4088# m1_2204_8288# VDD sky130_fd_pr__pfet_01v8 ad=0 pd=0 as=0 ps=0 w=0.42 l=0.15
X185 m1_2204_8288# m1_3838_4088# VDD VDD sky130_fd_pr__pfet_01v8 ad=0 pd=0 as=0 ps=0 w=0.42 l=0.15
X186 VDD m1_3838_4088# m1_3838_4088# VDD sky130_fd_pr__pfet_01v8 ad=0 pd=0 as=0.588 ps=7 w=0.42 l=0.15
X187 VDD m1_3838_4088# m1_3838_4088# VDD sky130_fd_pr__pfet_01v8 ad=0 pd=0 as=0 ps=0 w=0.42 l=0.15
X188 m1_3838_4088# m1_3838_4088# VDD VDD sky130_fd_pr__pfet_01v8 ad=0 pd=0 as=0 ps=0 w=0.42 l=0.15
X189 m1_3838_4088# m1_3838_4088# VDD VDD sky130_fd_pr__pfet_01v8 ad=0 pd=0 as=0 ps=0 w=0.42 l=0.15
X190 VDD m1_3838_4088# m1_3838_4088# VDD sky130_fd_pr__pfet_01v8 ad=0 pd=0 as=0 ps=0 w=0.42 l=0.15
X191 m1_3838_4088# m1_3838_4088# VDD VDD sky130_fd_pr__pfet_01v8 ad=0 pd=0 as=0 ps=0 w=0.42 l=0.15
X192 VDD m1_3838_4088# m1_3838_4088# VDD sky130_fd_pr__pfet_01v8 ad=0 pd=0 as=0 ps=0 w=0.42 l=0.15
X193 VDD m1_3838_4088# m1_3838_4088# VDD sky130_fd_pr__pfet_01v8 ad=0 pd=0 as=0 ps=0 w=0.42 l=0.15
X194 m1_3838_4088# m1_3838_4088# VDD VDD sky130_fd_pr__pfet_01v8 ad=0 pd=0 as=0 ps=0 w=0.42 l=0.15
X195 m1_3838_4088# m1_3838_4088# VDD VDD sky130_fd_pr__pfet_01v8 ad=0 pd=0 as=0 ps=0 w=0.42 l=0.15
X196 m1_6966_4088# VINP m1_5730_4004# VSS sky130_fd_pr__nfet_01v8 ad=0.0588 pd=0.7 as=0.0588 ps=0.7 w=0.42 l=0.15
X197 m1_6966_4088# VINP m1_5730_4004# VSS sky130_fd_pr__nfet_01v8 ad=0.0588 pd=0.7 as=0.0588 ps=0.7 w=0.42 l=0.15
X198 m1_5730_4004# VINP m1_6966_4088# VSS sky130_fd_pr__nfet_01v8 ad=0.0588 pd=0.7 as=0.0588 ps=0.7 w=0.42 l=0.15
X199 m1_5730_4004# VINP m1_6966_4088# VSS sky130_fd_pr__nfet_01v8 ad=0.0588 pd=0.7 as=0.0588 ps=0.7 w=0.42 l=0.15
X200 m1_6966_4088# VINP m1_5730_4004# VSS sky130_fd_pr__nfet_01v8 ad=0.0588 pd=0.7 as=0.0588 ps=0.7 w=0.42 l=0.15
X201 m1_5730_4004# VINP m1_6966_4088# VSS sky130_fd_pr__nfet_01v8 ad=0.0588 pd=0.7 as=0.0588 ps=0.7 w=0.42 l=0.15
X202 m1_6966_4088# VINP m1_5730_4004# VSS sky130_fd_pr__nfet_01v8 ad=0.0588 pd=0.7 as=0.0588 ps=0.7 w=0.42 l=0.15
X203 m1_5730_4004# VINP m1_6966_4088# VSS sky130_fd_pr__nfet_01v8 ad=0.0588 pd=0.7 as=0.0588 ps=0.7 w=0.42 l=0.15
X204 m1_6966_4088# VINP m1_5730_4004# VSS sky130_fd_pr__nfet_01v8 ad=0.0588 pd=0.7 as=0.0588 ps=0.7 w=0.42 l=0.15
X205 m1_6966_4088# VINP m1_5730_4004# VSS sky130_fd_pr__nfet_01v8 ad=0.0588 pd=0.7 as=0.0588 ps=0.7 w=0.42 l=0.15
X206 m1_5730_4004# VINP m1_6966_4088# VSS sky130_fd_pr__nfet_01v8 ad=0.0588 pd=0.7 as=0.0588 ps=0.7 w=0.42 l=0.15
X207 m1_6966_4088# VINP m1_5730_4004# VSS sky130_fd_pr__nfet_01v8 ad=0.0588 pd=0.7 as=0.0588 ps=0.7 w=0.42 l=0.15
X208 m1_5730_4004# VINP m1_6966_4088# VSS sky130_fd_pr__nfet_01v8 ad=0.0588 pd=0.7 as=0.0588 ps=0.7 w=0.42 l=0.15
X209 m1_6966_4088# VINP m1_5730_4004# VSS sky130_fd_pr__nfet_01v8 ad=0.0588 pd=0.7 as=0.0588 ps=0.7 w=0.42 l=0.15
X210 m1_5730_4004# VINP m1_6966_4088# VSS sky130_fd_pr__nfet_01v8 ad=0.0588 pd=0.7 as=0.0588 ps=0.7 w=0.42 l=0.15
X211 m1_6966_4088# VINP m1_5730_4004# VSS sky130_fd_pr__nfet_01v8 ad=0.0588 pd=0.7 as=0.0588 ps=0.7 w=0.42 l=0.15
X212 m1_6966_4088# VINP m1_5730_4004# VSS sky130_fd_pr__nfet_01v8 ad=0.0588 pd=0.7 as=0.0588 ps=0.7 w=0.42 l=0.15
X213 m1_5730_4004# VINP m1_6966_4088# VSS sky130_fd_pr__nfet_01v8 ad=0.0588 pd=0.7 as=0.0588 ps=0.7 w=0.42 l=0.15
X214 m1_6966_4088# VINP m1_5730_4004# VSS sky130_fd_pr__nfet_01v8 ad=0.0588 pd=0.7 as=0.0588 ps=0.7 w=0.42 l=0.15
X215 m1_5730_4004# VINP m1_6966_4088# VSS sky130_fd_pr__nfet_01v8 ad=0.0588 pd=0.7 as=0.0588 ps=0.7 w=0.42 l=0.15
X216 m1_5730_4004# VINP m1_6966_4088# VSS sky130_fd_pr__nfet_01v8 ad=0.111 pd=1.37 as=0.0588 ps=0.7 w=0.42 l=0.15
X217 m1_5730_4004# VINP m1_6966_4088# VSS sky130_fd_pr__nfet_01v8 ad=0.0588 pd=0.7 as=0.0588 ps=0.7 w=0.42 l=0.15
X218 m1_5730_4004# VINP m1_6966_4088# VSS sky130_fd_pr__nfet_01v8 ad=0.0588 pd=0.7 as=0.0588 ps=0.7 w=0.42 l=0.15
X219 m1_6966_4088# VINP m1_5730_4004# VSS sky130_fd_pr__nfet_01v8 ad=0.0588 pd=0.7 as=0.111 ps=1.37 w=0.42 l=0.15
X220 m1_5730_4004# VINP m1_6966_4088# VSS sky130_fd_pr__nfet_01v8 ad=0.0588 pd=0.7 as=0.0588 ps=0.7 w=0.42 l=0.15
X221 m1_6966_4088# VINP m1_5730_4004# VSS sky130_fd_pr__nfet_01v8 ad=0.0588 pd=0.7 as=0.0588 ps=0.7 w=0.42 l=0.15
X222 m1_5730_4004# VINP m1_6966_4088# VSS sky130_fd_pr__nfet_01v8 ad=0.0588 pd=0.7 as=0.0588 ps=0.7 w=0.42 l=0.15
X223 m1_6966_4088# VINP m1_5730_4004# VSS sky130_fd_pr__nfet_01v8 ad=0.0588 pd=0.7 as=0.0588 ps=0.7 w=0.42 l=0.15
X224 m1_3838_4088# VINN m1_5730_4004# VSS sky130_fd_pr__nfet_01v8 ad=1.65 pd=19.6 as=6.8 ps=81.1 w=0.42 l=0.15
X225 m1_3838_4088# VINN m1_5730_4004# VSS sky130_fd_pr__nfet_01v8 ad=0 pd=0 as=0 ps=0 w=0.42 l=0.15
X226 m1_5730_4004# VINN m1_3838_4088# VSS sky130_fd_pr__nfet_01v8 ad=0 pd=0 as=0 ps=0 w=0.42 l=0.15
X227 m1_5730_4004# VINN m1_3838_4088# VSS sky130_fd_pr__nfet_01v8 ad=0 pd=0 as=0 ps=0 w=0.42 l=0.15
X228 m1_3838_4088# VINN m1_5730_4004# VSS sky130_fd_pr__nfet_01v8 ad=0 pd=0 as=0 ps=0 w=0.42 l=0.15
X229 m1_5730_4004# VINN m1_3838_4088# VSS sky130_fd_pr__nfet_01v8 ad=0 pd=0 as=0 ps=0 w=0.42 l=0.15
X230 m1_3838_4088# VINN m1_5730_4004# VSS sky130_fd_pr__nfet_01v8 ad=0 pd=0 as=0 ps=0 w=0.42 l=0.15
X231 m1_5730_4004# VINN m1_3838_4088# VSS sky130_fd_pr__nfet_01v8 ad=0 pd=0 as=0 ps=0 w=0.42 l=0.15
X232 m1_3838_4088# VINN m1_5730_4004# VSS sky130_fd_pr__nfet_01v8 ad=0 pd=0 as=0 ps=0 w=0.42 l=0.15
X233 m1_3838_4088# VINN m1_5730_4004# VSS sky130_fd_pr__nfet_01v8 ad=0 pd=0 as=0 ps=0 w=0.42 l=0.15
X234 m1_5730_4004# VINN m1_3838_4088# VSS sky130_fd_pr__nfet_01v8 ad=0 pd=0 as=0 ps=0 w=0.42 l=0.15
X235 m1_3838_4088# VINN m1_5730_4004# VSS sky130_fd_pr__nfet_01v8 ad=0 pd=0 as=0 ps=0 w=0.42 l=0.15
X236 m1_5730_4004# VINN m1_3838_4088# VSS sky130_fd_pr__nfet_01v8 ad=0 pd=0 as=0 ps=0 w=0.42 l=0.15
X237 m1_3838_4088# VINN m1_5730_4004# VSS sky130_fd_pr__nfet_01v8 ad=0 pd=0 as=0 ps=0 w=0.42 l=0.15
X238 m1_5730_4004# VINN m1_3838_4088# VSS sky130_fd_pr__nfet_01v8 ad=0 pd=0 as=0 ps=0 w=0.42 l=0.15
X239 m1_3838_4088# VINN m1_5730_4004# VSS sky130_fd_pr__nfet_01v8 ad=0 pd=0 as=0 ps=0 w=0.42 l=0.15
X240 m1_3838_4088# VINN m1_5730_4004# VSS sky130_fd_pr__nfet_01v8 ad=0 pd=0 as=0 ps=0 w=0.42 l=0.15
X241 m1_5730_4004# VINN m1_3838_4088# VSS sky130_fd_pr__nfet_01v8 ad=0 pd=0 as=0 ps=0 w=0.42 l=0.15
X242 m1_3838_4088# VINN m1_5730_4004# VSS sky130_fd_pr__nfet_01v8 ad=0 pd=0 as=0 ps=0 w=0.42 l=0.15
X243 m1_5730_4004# VINN m1_3838_4088# VSS sky130_fd_pr__nfet_01v8 ad=0 pd=0 as=0 ps=0 w=0.42 l=0.15
X244 m1_5730_4004# VINN m1_3838_4088# VSS sky130_fd_pr__nfet_01v8 ad=0 pd=0 as=0 ps=0 w=0.42 l=0.15
X245 m1_5730_4004# VINN m1_3838_4088# VSS sky130_fd_pr__nfet_01v8 ad=0 pd=0 as=0 ps=0 w=0.42 l=0.15
X246 m1_5730_4004# VINN m1_3838_4088# VSS sky130_fd_pr__nfet_01v8 ad=0 pd=0 as=0 ps=0 w=0.42 l=0.15
X247 m1_3838_4088# VINN m1_5730_4004# VSS sky130_fd_pr__nfet_01v8 ad=0 pd=0 as=0 ps=0 w=0.42 l=0.15
X248 m1_5730_4004# VINN m1_3838_4088# VSS sky130_fd_pr__nfet_01v8 ad=0 pd=0 as=0 ps=0 w=0.42 l=0.15
X249 m1_3838_4088# VINN m1_5730_4004# VSS sky130_fd_pr__nfet_01v8 ad=0 pd=0 as=0 ps=0 w=0.42 l=0.15
X250 m1_5730_4004# VINN m1_3838_4088# VSS sky130_fd_pr__nfet_01v8 ad=0 pd=0 as=0 ps=0 w=0.42 l=0.15
X251 m1_3838_4088# VINN m1_5730_4004# VSS sky130_fd_pr__nfet_01v8 ad=0 pd=0 as=0 ps=0 w=0.42 l=0.15
X252 m1_2204_8288# m1_2204_8288# VSS VSS sky130_fd_pr__nfet_01v8 ad=0.0588 pd=0.7 as=0.0588 ps=0.7 w=0.42 l=0.15
X253 m1_2204_8288# m1_2204_8288# VSS VSS sky130_fd_pr__nfet_01v8 ad=0.0588 pd=0.7 as=0.0588 ps=0.7 w=0.42 l=0.15
X254 VSS m1_2204_8288# m1_2204_8288# VSS sky130_fd_pr__nfet_01v8 ad=0.0588 pd=0.7 as=0.0588 ps=0.7 w=0.42 l=0.15
X255 VSS m1_2204_8288# m1_2204_8288# VSS sky130_fd_pr__nfet_01v8 ad=0.0588 pd=0.7 as=0.0588 ps=0.7 w=0.42 l=0.15
X256 VSS m1_2204_8288# m1_2204_8288# VSS sky130_fd_pr__nfet_01v8 ad=0.0588 pd=0.7 as=0.0588 ps=0.7 w=0.42 l=0.15
X257 VSS m1_2204_8288# m1_2204_8288# VSS sky130_fd_pr__nfet_01v8 ad=0.0588 pd=0.7 as=0.0588 ps=0.7 w=0.42 l=0.15
X258 m1_2204_8288# m1_2204_8288# VSS VSS sky130_fd_pr__nfet_01v8 ad=0.0588 pd=0.7 as=0.0588 ps=0.7 w=0.42 l=0.15
X259 VSS m1_2204_8288# m1_2204_8288# VSS sky130_fd_pr__nfet_01v8 ad=0.0588 pd=0.7 as=0.0588 ps=0.7 w=0.42 l=0.15
X260 m1_2204_8288# m1_2204_8288# VSS VSS sky130_fd_pr__nfet_01v8 ad=0.0588 pd=0.7 as=0.0588 ps=0.7 w=0.42 l=0.15
X261 m1_2204_8288# m1_2204_8288# VSS VSS sky130_fd_pr__nfet_01v8 ad=0.0588 pd=0.7 as=0.0588 ps=0.7 w=0.42 l=0.15
X262 m1_2204_8288# m1_2204_8288# VSS VSS sky130_fd_pr__nfet_01v8 ad=0.0588 pd=0.7 as=0.0588 ps=0.7 w=0.42 l=0.15
X263 VSS m1_2204_8288# m1_2204_8288# VSS sky130_fd_pr__nfet_01v8 ad=0.0588 pd=0.7 as=0.0588 ps=0.7 w=0.42 l=0.15
X264 m1_2204_8288# m1_2204_8288# VSS VSS sky130_fd_pr__nfet_01v8 ad=0.0588 pd=0.7 as=0.0588 ps=0.7 w=0.42 l=0.15
X265 m1_2204_8288# m1_2204_8288# VSS VSS sky130_fd_pr__nfet_01v8 ad=0.0588 pd=0.7 as=0.0588 ps=0.7 w=0.42 l=0.15
X266 VSS m1_2204_8288# m1_2204_8288# VSS sky130_fd_pr__nfet_01v8 ad=0.0588 pd=0.7 as=0.0588 ps=0.7 w=0.42 l=0.15
X267 m1_2204_8288# m1_2204_8288# VSS VSS sky130_fd_pr__nfet_01v8 ad=0.0588 pd=0.7 as=0.0588 ps=0.7 w=0.42 l=0.15
X268 VSS m1_2204_8288# m1_2204_8288# VSS sky130_fd_pr__nfet_01v8 ad=0.111 pd=1.37 as=0.0588 ps=0.7 w=0.42 l=0.15
X269 VSS m1_2204_8288# m1_2204_8288# VSS sky130_fd_pr__nfet_01v8 ad=0.0588 pd=0.7 as=0.0588 ps=0.7 w=0.42 l=0.15
X270 VSS m1_2204_8288# m1_2204_8288# VSS sky130_fd_pr__nfet_01v8 ad=0.0588 pd=0.7 as=0.0588 ps=0.7 w=0.42 l=0.15
X271 m1_2204_8288# m1_2204_8288# VSS VSS sky130_fd_pr__nfet_01v8 ad=0.0588 pd=0.7 as=0.0588 ps=0.7 w=0.42 l=0.15
X272 VSS m1_2204_8288# m1_2204_8288# VSS sky130_fd_pr__nfet_01v8 ad=0.0588 pd=0.7 as=0.0588 ps=0.7 w=0.42 l=0.15
X273 m1_2204_8288# m1_2204_8288# VSS VSS sky130_fd_pr__nfet_01v8 ad=0.0588 pd=0.7 as=0.0588 ps=0.7 w=0.42 l=0.15
X274 m1_2204_8288# m1_2204_8288# VSS VSS sky130_fd_pr__nfet_01v8 ad=0.0588 pd=0.7 as=0.0588 ps=0.7 w=0.42 l=0.15
X275 VSS m1_2204_8288# m1_2204_8288# VSS sky130_fd_pr__nfet_01v8 ad=0.0588 pd=0.7 as=0.0588 ps=0.7 w=0.42 l=0.15
X276 m1_2204_8288# m1_2204_8288# VSS VSS sky130_fd_pr__nfet_01v8 ad=0.0588 pd=0.7 as=0.0588 ps=0.7 w=0.42 l=0.15
X277 VSS m1_2204_8288# m1_2204_8288# VSS sky130_fd_pr__nfet_01v8 ad=0.0588 pd=0.7 as=0.0588 ps=0.7 w=0.42 l=0.15
X278 VSS m1_2204_8288# m1_2204_8288# VSS sky130_fd_pr__nfet_01v8 ad=0.0588 pd=0.7 as=0.0588 ps=0.7 w=0.42 l=0.15
X279 m1_2204_8288# m1_2204_8288# VSS VSS sky130_fd_pr__nfet_01v8 ad=0.0588 pd=0.7 as=0.0588 ps=0.7 w=0.42 l=0.15
X280 m1_2204_8288# m1_2204_8288# VSS VSS sky130_fd_pr__nfet_01v8 ad=0.0588 pd=0.7 as=0.0588 ps=0.7 w=0.42 l=0.15
X281 m1_2204_8288# m1_2204_8288# VSS VSS sky130_fd_pr__nfet_01v8 ad=0.0588 pd=0.7 as=0.0588 ps=0.7 w=0.42 l=0.15
X282 VSS m1_2204_8288# m1_2204_8288# VSS sky130_fd_pr__nfet_01v8 ad=0.0588 pd=0.7 as=0.0588 ps=0.7 w=0.42 l=0.15
X283 VSS m1_2204_8288# m1_2204_8288# VSS sky130_fd_pr__nfet_01v8 ad=0.0588 pd=0.7 as=0.0588 ps=0.7 w=0.42 l=0.15
X284 m1_2204_8288# m1_2204_8288# VSS VSS sky130_fd_pr__nfet_01v8 ad=0.0588 pd=0.7 as=0.0588 ps=0.7 w=0.42 l=0.15
X285 VSS m1_2204_8288# m1_2204_8288# VSS sky130_fd_pr__nfet_01v8 ad=0.0588 pd=0.7 as=0.0588 ps=0.7 w=0.42 l=0.15
X286 VSS m1_2204_8288# m1_2204_8288# VSS sky130_fd_pr__nfet_01v8 ad=0.0588 pd=0.7 as=0.0588 ps=0.7 w=0.42 l=0.15
X287 VSS m1_2204_8288# m1_2204_8288# VSS sky130_fd_pr__nfet_01v8 ad=0.0588 pd=0.7 as=0.0588 ps=0.7 w=0.42 l=0.15
X288 VSS m1_2204_8288# m1_2204_8288# VSS sky130_fd_pr__nfet_01v8 ad=0.0588 pd=0.7 as=0.0588 ps=0.7 w=0.42 l=0.15
X289 m1_2204_8288# m1_2204_8288# VSS VSS sky130_fd_pr__nfet_01v8 ad=0.0588 pd=0.7 as=0.0588 ps=0.7 w=0.42 l=0.15
X290 m1_2204_8288# m1_2204_8288# VSS VSS sky130_fd_pr__nfet_01v8 ad=0.0588 pd=0.7 as=0.0588 ps=0.7 w=0.42 l=0.15
X291 m1_2204_8288# m1_2204_8288# VSS VSS sky130_fd_pr__nfet_01v8 ad=0.0588 pd=0.7 as=0.0588 ps=0.7 w=0.42 l=0.15