* Copyright 2020 The SkyWater PDK Authors
*
* Licensed under the Apache License, Version 2.0 (the "License");
* you may not use this file except in compliance with the License.
* You may obtain a copy of the License at
*
*     https://www.apache.org/licenses/LICENSE-2.0
*
* Unless required by applicable law or agreed to in writing, software
* distributed under the License is distributed on an "AS IS" BASIS,
* WITHOUT WARRANTIES OR CONDITIONS OF ANY KIND, either express or implied.
* See the License for the specific language governing permissions and
* limitations under the License.

* SKY130 Spice File.
.param sky130_fd_pr__nfet_g5v0d10v5__toxe_slope_spectre = 0.0
.param sky130_fd_pr__nfet_g5v0d10v5__vth0_slope_spectre = 0.0
.param sky130_fd_pr__nfet_g5v0d10v5__voff_slope_spectre = 0.0
.param sky130_fd_pr__nfet_g5v0d10v5__nfactor_slope_spectre = 0.0
* statistics {
*   process {
*   }
*   mismatch {
*     vary sky130_fd_pr__nfet_g5v0d10v5__toxe_slope_spectre dist=gauss std = 1.0
*     vary sky130_fd_pr__nfet_g5v0d10v5__vth0_slope_spectre dist=gauss std = 1.0
*     vary sky130_fd_pr__nfet_g5v0d10v5__voff_slope_spectre dist=gauss std = 1.0
*     vary sky130_fd_pr__nfet_g5v0d10v5__nfactor_slope_spectre dist=gauss std = 1.0
*   }
* }
.subckt  sky130_fd_pr__nfet_g5v0d10v5 d g s b
+ 
.param  l = 1 w = 1 ad = 0 as = 0 pd = 0 ps = 0 nrd = 0 nrs = 0 sa = 0 sb = 0 sd = 0 mult = 1 nf = 1.0
msky130_fd_pr__nfet_g5v0d10v5 d g s b sky130_fd_pr__nfet_g5v0d10v5__model l = {l} w = {w} ad = {ad} as = {as} pd = {pd} ps = {ps} nrd = {nrd} nrs = {nrs} sa = {sa} sb = {sb} sd = {sd} nf = {nf}
.model sky130_fd_pr__nfet_g5v0d10v5__model.0 nmos
* DC IV MOS Parameters
+ lmin = 2.0e-05 lmax = 1.0e-04 wmin = 2.0e-05 wmax = 1.0e-4
+ level = 54.0
+ tnom = 30.0
+ version = 4.5
+ toxm = 1.16e-8
+ xj = 1.5e-7
+ lln = 1.0
+ lwn = 1.0
+ wln = 1.0
+ wwn = 1.0
+ lint = 8.86345e-8
+ ll = 0.0
+ lw = 0.0
+ lwl = 0.0
+ wint = -1.174e-9
+ wl = 0.0
+ ww = 0.0
+ wwl = 0.0
+ xl = 0.0
+ xw = 0.0
+ mobmod = 0.0
+ binunit = 2.0
+ dwg = -4.1292e-9
+ dwb = -1.6944e-9
* BSIM4 - Model Selectors
+ igcmod = 0.0
+ igbmod = 0.0
+ rgatemod = 0.0
+ rbodymod = 1.0
+ trnqsmod = 0.0
+ acnqsmod = 0.0
+ fnoimod = 1.0
+ tnoimod = 1.0
+ permod = 1.0
+ geomod = 0.0
+ rdsmod = 0.0
+ tempmod = 0.0
+ lintnoi = 0.0
+ vfbsdoff = 0.0
+ lambda = 0.0
+ vtl = 0.0
+ lc = 5.0e-9
+ xn = 3.0
+ rnoia = 0.794
+ rnoib = 0.38
+ tnoia = 7.50e+6
+ tnoib = 7.2e+6
* BSIM4 - Process Parameters
+ epsrox = 3.9
+ toxe = {1.11128e-08+sky130_fd_pr__nfet_g5v0d10v5__toxe_slope_spectre*(1.11128e-08*(sky130_fd_pr__nfet_g5v0d10v5__toxe_slope/sqrt(l*w*mult)))}
+ dtox = 0.0
+ ndep = 1.7000000000000000e+17
+ nsd = 1.0e+20
+ rshg = 0.1
+ rsh = 1.0
* Threshold Voltage Parameters
+ vth0 = {0.791968+sky130_fd_pr__nfet_g5v0d10v5__vth0_slope_spectre*(sky130_fd_pr__nfet_g5v0d10v5__vth0_slope/sqrt(l*w*mult))}
+ k1 = 0.88325
+ k2 = -0.0388233
+ k3 = -0.884
+ dvt0 = 0.0
+ dvt1 = 0.53
+ dvt2 = -0.19251
+ dvt0w = 0.16
+ dvt1w = 6909100.0
+ dvt2w = -0.036016
+ w0 = 0.0
+ k3b = 0.43
* NEW BSIM4 Parameters for Level 54
+ phin = 0.0
+ lpe0 = 2.5e-8
+ lpeb = -2.182e-7
+ vbm = -3.0
+ dvtp0 = 0.0
+ dvtp1 = 0.0
* Mobility Parameters
+ vsat = 105660.0
+ ua = -6.02229e-11
+ ub = 1.73106e-18
+ uc = 6.6204e-11
+ rdsw = 724.62
+ prwb = 0.05626
+ prwg = 0.048
+ wr = 1.0
+ u0 = 0.0426101
+ a0 = 0.9440931
+ keta = -0.02132
+ a1 = 0.0
+ a2 = 0.65972622
+ ags = 0.1460627
+ b0 = 3.2933e-8
+ b1 = 0.0
* BSIM4 - Mobility Parameters
+ eu = 1.67
+ rdswmin = 0.0
+ rdw = 0.0
+ rdwmin = 0.0
+ rsw = 0.0
+ rswmin = 0.0
* Subthreshold Current Parameters
+ voff = {-0.20613+sky130_fd_pr__nfet_g5v0d10v5__voff_slope_spectre*(sky130_fd_pr__nfet_g5v0d10v5__voff_slope/sqrt(l*w*mult))}
+ nfactor = {0.93087+sky130_fd_pr__nfet_g5v0d10v5__nfactor_slope_spectre*(sky130_fd_pr__nfet_g5v0d10v5__nfactor_slope/sqrt(l*w*mult))}
+ up = 0.0
+ ud = 0.0
+ lp = 1.0
+ tvfbsdoff = 0.0
+ tvoff = 0.0
+ cit = -8.0e-4
+ cdsc = 0.0
+ cdscb = 0.0
+ cdscd = 0.0
+ eta0 = 0.032
+ etab = -0.01932
+ dsub = 0.504
* BSIM4 - Sub-threshold parameters
+ voffl = -4.2579486e-7
+ minv = 0.0
* Rout Parameters
+ pclm = 0.33405
+ pdiblc1 = 0.21098
+ pdiblc2 = 2.0e-4
+ pdiblcb = -0.26831
+ drout = 0.36075
+ pscbe1 = 937310000.0
+ pscbe2 = 1.68e-6
+ pvag = 1.99
+ delta = 0.0246
+ alpha0 = 1.4467e-5
+ alpha1 = 0.0
+ beta0 = 24.0
* BSIM4 - Rout Parameters
+ fprout = 10.125
+ pdits = 0.0
+ pditsl = 0.0
+ pditsd = 0.0
* BSIM4 - Gate Induced Drain Leakage Model Parameters
+ agidl = 5.06e-11
+ bgidl = 1058000000.0
+ cgidl = 4000.0
+ egidl = 0.8
* BSIM4 - Gate Leakage Current Parameters
+ aigbacc = 1.0
+ bigbacc = 0.0
+ cigbacc = 0.0
+ nigbacc = 1.0
+ aigbinv = 0.35
+ bigbinv = 0.03
+ cigbinv = 0.006
+ eigbinv = 1.1
+ nigbinv = 3.0
+ aigc = 0.43
+ bigc = 0.054
+ cigc = 0.075
+ nigc = 1.0
+ aigsd = 0.43
+ bigsd = 0.054
+ cigsd = 0.075
+ dlcig = 0.0
+ poxedge = 1.0
+ pigcd = 1.0
+ ntox = 1.0
+ toxref = 1.16e-8
* Temperature Effects Parameters
+ kt1 = -0.40273
+ kt2 = -0.019151
+ at = 160000.0
+ ute = -1.2986
+ ua1 = 3.0044e-9
+ ub1 = -3.7525e-18
+ uc1 = -5.9821e-11
+ kt1l = 0.0
+ prt = 0.0
* BSIM4 - High Speed RF Model Parameters
+ xrcrg1 = 12.0
+ xrcrg2 = 1.0
+ rbpb = 50.0
+ rbpd = 50.0
+ rbps = 50.0
+ rbdb = 50.0
+ rbsb = 50.0
+ gbmin = 1.0e-12
* BSIM4 - Flicker and Thermal Noise Parameters
+ noia = 2.6e+41
+ noib = 0.0
+ noic = 0.0
+ em = 4.1000000e+7
+ af = 1.0
+ ef = 0.89
+ kf = 0.0
+ ntnoi = 1.0
* BSIM4 - Layout Dependent Parasitic Model Parameters
+ dmcg = 0.0
+ dmcgt = 0.0
+ dmdg = 0.0
+ xgw = 0.0
+ xgl = 0.0
+ ngcon = 1.0
* Diode DC IV Parameters
* BSIM4 - Diode DC IV parameters
+ diomod = 1.0
+ njs = 1.0773
+ jss = 0.000375
+ jsws = 5.84e-11
+ xtis = 0.76
+ bvs = 12.636
+ xjbvs = 1.0
+ ijthsrev = 0.1
+ ijthsfwd = 0.1
* Diode and FET Capacitance Parameters
+ tpb = 0.001344
+ tpbsw = 0.00099005
+ tpbswg = 0.0
+ tcj = 0.00067434
+ tcjsw = 0.0002493
+ tcjswg = 0.0
+ cgdo = 2.461036368e-10
+ cgso = 2.461036368e-10
+ cgbo = 0.0
+ capmod = 2.0
+ xpart = 0.0
+ cgsl = 4.0116e-11
+ cgdl = 4.0116e-11
+ cf = 0.0
+ clc = 1.0e-7
+ cle = 0.6
+ dlc = 7.81225e-8
+ dwc = -2.252e-8
+ vfbcv = -1.0
+ acde = 0.4176
+ moin = 15.0
+ noff = 4.0
+ voffcv = -0.4104
+ ngate = 1.0e+23
+ lwc = 0.0
+ llc = 0.0
+ lwlc = 0.0
+ wlc = 0.0
+ wwc = 0.0
+ wwlc = 0.0
* BSIM4 - FET and Diode capacitance parameters
+ ckappas = 0.6
+ cjs = 0.000741207936
+ mjs = 0.295
+ pbs = 0.72468
+ cjsws = 7.232371132e-11
+ mjsws = 0.037586
+ pbsws = 0.29067
+ cjswgs = 4.583682e-11
+ mjswgs = 0.78692
+ pbswgs = 0.54958
* Stress Parameters
+ saref = 3.0e-6
+ sbref = 3.0e-6
+ wlod = {0+sky130_fd_pr__nfet_g5v0d10v5__wlod_diff}
+ kvth0 = {0+sky130_fd_pr__nfet_g5v0d10v5__kvth0_diff}
+ lkvth0 = {0+sky130_fd_pr__nfet_g5v0d10v5__lkvth0_diff}
+ wkvth0 = {0+sky130_fd_pr__nfet_g5v0d10v5__wkvth0_diff}
+ pkvth0 = 0.0
+ llodvth = 0.0
+ wlodvth = 1.0
+ stk2 = 0.0
+ lodk2 = 1.0
+ lodeta0 = 1.0
+ ku0 = {0+sky130_fd_pr__nfet_g5v0d10v5__ku0_diff}
+ lku0 = {0+sky130_fd_pr__nfet_g5v0d10v5__lku0_diff}
+ wku0 = {0+sky130_fd_pr__nfet_g5v0d10v5__wku0_diff}
+ pku0 = 0.0
+ llodku0 = 0.0
+ wlodku0 = 1.0
+ kvsat = {0+sky130_fd_pr__nfet_g5v0d10v5__kvsat_diff}
+ steta0 = 0.0
+ tku0 = 0.0
.model sky130_fd_pr__nfet_g5v0d10v5__model.1 nmos
* DC IV MOS Parameters
+ lmin = 8e-06 lmax = 2.0e-05 wmin = 2.0e-05 wmax = 1.0e-4
+ level = 54.0
+ tnom = 30.0
+ version = 4.5
+ toxm = 1.16e-8
+ xj = 1.5e-7
+ lln = 1.0
+ lwn = 1.0
+ wln = 1.0
+ wwn = 1.0
+ lint = 8.86345e-8
+ ll = 0.0
+ lw = 0.0
+ lwl = 0.0
+ wint = -1.174e-9
+ wl = 0.0
+ ww = 0.0
+ wwl = 0.0
+ xl = 0.0
+ xw = 0.0
+ mobmod = 0.0
+ binunit = 2.0
+ dwg = -4.1292e-9
+ dwb = -1.6944e-9
* BSIM4 - Model Selectors
+ igcmod = 0.0
+ igbmod = 0.0
+ rgatemod = 0.0
+ rbodymod = 1.0
+ trnqsmod = 0.0
+ acnqsmod = 0.0
+ fnoimod = 1.0
+ tnoimod = 1.0
+ permod = 1.0
+ geomod = 0.0
+ rdsmod = 0.0
+ tempmod = 0.0
+ lintnoi = 0.0
+ vfbsdoff = 0.0
+ lambda = 0.0
+ vtl = 0.0
+ lc = 5.0e-9
+ xn = 3.0
+ rnoia = 0.794
+ rnoib = 0.38
+ tnoia = 7.50e+6
+ tnoib = 7.2e+6
* BSIM4 - Process Parameters
+ epsrox = 3.9
+ toxe = {1.11128e-08+sky130_fd_pr__nfet_g5v0d10v5__toxe_slope_spectre*(1.11128e-08*(sky130_fd_pr__nfet_g5v0d10v5__toxe_slope/sqrt(l*w*mult)))}
+ dtox = 0.0
+ ndep = 1.7000000000000000e+17
+ nsd = 1.0e+20
+ rshg = 0.1
+ rsh = 1.0
* Threshold Voltage Parameters
+ vth0 = {0.791968+sky130_fd_pr__nfet_g5v0d10v5__vth0_slope_spectre*(sky130_fd_pr__nfet_g5v0d10v5__vth0_slope/sqrt(l*w*mult))}
+ k1 = 0.88325
+ k2 = -0.0388233
+ k3 = -0.884
+ dvt0 = 0.0
+ dvt1 = 0.53
+ dvt2 = -0.19251
+ dvt0w = 0.16
+ dvt1w = 6909100.0
+ dvt2w = -0.036016
+ w0 = 0.0
+ k3b = 0.43
* NEW BSIM4 Parameters for Level 54
+ phin = 0.0
+ lpe0 = 2.5e-8
+ lpeb = -2.182e-7
+ vbm = -3.0
+ dvtp0 = 0.0
+ dvtp1 = 0.0
* Mobility Parameters
+ vsat = 105660.0
+ ua = -6.02229e-11
+ ub = 1.73106e-18
+ uc = 6.6204e-11
+ rdsw = 724.62
+ prwb = 0.05626
+ prwg = 0.048
+ wr = 1.0
+ u0 = 0.0426101
+ a0 = 0.9440931
+ keta = -0.02132
+ a1 = 0.0
+ a2 = 0.65972622
+ ags = 0.1460627
+ b0 = 3.2933e-8
+ b1 = 0.0
* BSIM4 - Mobility Parameters
+ eu = 1.67
+ rdswmin = 0.0
+ rdw = 0.0
+ rdwmin = 0.0
+ rsw = 0.0
+ rswmin = 0.0
* Subthreshold Current Parameters
+ voff = {-0.20613+sky130_fd_pr__nfet_g5v0d10v5__voff_slope_spectre*(sky130_fd_pr__nfet_g5v0d10v5__voff_slope/sqrt(l*w*mult))}
+ nfactor = {0.93087+sky130_fd_pr__nfet_g5v0d10v5__nfactor_slope_spectre*(sky130_fd_pr__nfet_g5v0d10v5__nfactor_slope/sqrt(l*w*mult))}
+ up = 0.0
+ ud = 0.0
+ lp = 1.0
+ tvfbsdoff = 0.0
+ tvoff = 0.0
+ cit = -8.0e-4
+ cdsc = 0.0
+ cdscb = 0.0
+ cdscd = 0.0
+ eta0 = 0.032
+ etab = -0.01932
+ dsub = 0.504
* BSIM4 - Sub-threshold parameters
+ voffl = -4.2579486e-7
+ minv = 0.0
* Rout Parameters
+ pclm = 0.33405
+ pdiblc1 = 0.21098
+ pdiblc2 = 2.0e-4
+ pdiblcb = -0.26831
+ drout = 0.36075
+ pscbe1 = 937310000.0
+ pscbe2 = 1.68e-6
+ pvag = 1.99
+ delta = 0.0246
+ alpha0 = 1.4467e-5
+ alpha1 = 0.0
+ beta0 = 24.0
* BSIM4 - Rout Parameters
+ fprout = 10.125
+ pdits = 0.0
+ pditsl = 0.0
+ pditsd = 0.0
* BSIM4 - Gate Induced Drain Leakage Model Parameters
+ agidl = 5.06e-11
+ bgidl = 1058000000.0
+ cgidl = 4000.0
+ egidl = 0.8
* BSIM4 - Gate Leakage Current Parameters
+ aigbacc = 1.0
+ bigbacc = 0.0
+ cigbacc = 0.0
+ nigbacc = 1.0
+ aigbinv = 0.35
+ bigbinv = 0.03
+ cigbinv = 0.006
+ eigbinv = 1.1
+ nigbinv = 3.0
+ aigc = 0.43
+ bigc = 0.054
+ cigc = 0.075
+ nigc = 1.0
+ aigsd = 0.43
+ bigsd = 0.054
+ cigsd = 0.075
+ dlcig = 0.0
+ poxedge = 1.0
+ pigcd = 1.0
+ ntox = 1.0
+ toxref = 1.16e-8
* Temperature Effects Parameters
+ kt1 = -0.40273
+ kt2 = -0.019151
+ at = 160000.0
+ ute = -1.2986
+ ua1 = 3.0044e-9
+ ub1 = -3.7525e-18
+ uc1 = -5.9821e-11
+ kt1l = 0.0
+ prt = 0.0
* BSIM4 - High Speed RF Model Parameters
+ xrcrg1 = 12.0
+ xrcrg2 = 1.0
+ rbpb = 50.0
+ rbpd = 50.0
+ rbps = 50.0
+ rbdb = 50.0
+ rbsb = 50.0
+ gbmin = 1.0e-12
* BSIM4 - Flicker and Thermal Noise Parameters
+ noia = 2.6e+41
+ noib = 0.0
+ noic = 0.0
+ em = 4.1000000e+7
+ af = 1.0
+ ef = 0.89
+ kf = 0.0
+ ntnoi = 1.0
* BSIM4 - Layout Dependent Parasitic Model Parameters
+ dmcg = 0.0
+ dmcgt = 0.0
+ dmdg = 0.0
+ xgw = 0.0
+ xgl = 0.0
+ ngcon = 1.0
* Diode DC IV Parameters
* BSIM4 - Diode DC IV parameters
+ diomod = 1.0
+ njs = 1.0773
+ jss = 0.000375
+ jsws = 5.84e-11
+ xtis = 0.76
+ bvs = 12.636
+ xjbvs = 1.0
+ ijthsrev = 0.1
+ ijthsfwd = 0.1
* Diode and FET Capacitance Parameters
+ tpb = 0.001344
+ tpbsw = 0.00099005
+ tpbswg = 0.0
+ tcj = 0.00067434
+ tcjsw = 0.0002493
+ tcjswg = 0.0
+ cgdo = 2.461036368e-10
+ cgso = 2.461036368e-10
+ cgbo = 0.0
+ capmod = 2.0
+ xpart = 0.0
+ cgsl = 4.0116e-11
+ cgdl = 4.0116e-11
+ cf = 0.0
+ clc = 1.0e-7
+ cle = 0.6
+ dlc = 7.81225e-8
+ dwc = -2.252e-8
+ vfbcv = -1.0
+ acde = 0.4176
+ moin = 15.0
+ noff = 4.0
+ voffcv = -0.4104
+ ngate = 1.0e+23
+ lwc = 0.0
+ llc = 0.0
+ lwlc = 0.0
+ wlc = 0.0
+ wwc = 0.0
+ wwlc = 0.0
* BSIM4 - FET and Diode capacitance parameters
+ ckappas = 0.6
+ cjs = 0.000741207936
+ mjs = 0.295
+ pbs = 0.72468
+ cjsws = 7.232371132e-11
+ mjsws = 0.037586
+ pbsws = 0.29067
+ cjswgs = 4.583682e-11
+ mjswgs = 0.78692
+ pbswgs = 0.54958
* Stress Parameters
+ saref = 3.0e-6
+ sbref = 3.0e-6
+ wlod = {0+sky130_fd_pr__nfet_g5v0d10v5__wlod_diff}
+ kvth0 = {0+sky130_fd_pr__nfet_g5v0d10v5__kvth0_diff}
+ lkvth0 = {0+sky130_fd_pr__nfet_g5v0d10v5__lkvth0_diff}
+ wkvth0 = {0+sky130_fd_pr__nfet_g5v0d10v5__wkvth0_diff}
+ pkvth0 = 0.0
+ llodvth = 0.0
+ wlodvth = 1.0
+ stk2 = 0.0
+ lodk2 = 1.0
+ lodeta0 = 1.0
+ ku0 = {0+sky130_fd_pr__nfet_g5v0d10v5__ku0_diff}
+ lku0 = {0+sky130_fd_pr__nfet_g5v0d10v5__lku0_diff}
+ wku0 = {0+sky130_fd_pr__nfet_g5v0d10v5__wku0_diff}
+ pku0 = 0.0
+ llodku0 = 0.0
+ wlodku0 = 1.0
+ kvsat = {0+sky130_fd_pr__nfet_g5v0d10v5__kvsat_diff}
+ steta0 = 0.0
+ tku0 = 0.0
.model sky130_fd_pr__nfet_g5v0d10v5__model.2 nmos
* DC IV MOS Parameters
+ lmin = 4e-06 lmax = 8e-06 wmin = 2.0e-05 wmax = 1.0e-4
+ level = 54.0
+ tnom = 30.0
+ version = 4.5
+ toxm = 1.16e-8
+ xj = 1.5e-7
+ lln = 1.0
+ lwn = 1.0
+ wln = 1.0
+ wwn = 1.0
+ lint = 8.86345e-8
+ ll = 0.0
+ lw = 0.0
+ lwl = 0.0
+ wint = -1.174e-9
+ wl = 0.0
+ ww = 0.0
+ wwl = 0.0
+ xl = 0.0
+ xw = 0.0
+ mobmod = 0.0
+ binunit = 2.0
+ dwg = -4.1292e-9
+ dwb = -1.6944e-9
* BSIM4 - Model Selectors
+ igcmod = 0.0
+ igbmod = 0.0
+ rgatemod = 0.0
+ rbodymod = 1.0
+ trnqsmod = 0.0
+ acnqsmod = 0.0
+ fnoimod = 1.0
+ tnoimod = 1.0
+ permod = 1.0
+ geomod = 0.0
+ rdsmod = 0.0
+ tempmod = 0.0
+ lintnoi = 0.0
+ vfbsdoff = 0.0
+ lambda = 0.0
+ vtl = 0.0
+ lc = 5.0e-9
+ xn = 3.0
+ rnoia = 0.794
+ rnoib = 0.38
+ tnoia = 7.50e+6
+ tnoib = 7.2e+6
* BSIM4 - Process Parameters
+ epsrox = 3.9
+ toxe = {1.11128e-08+sky130_fd_pr__nfet_g5v0d10v5__toxe_slope_spectre*(1.11128e-08*(sky130_fd_pr__nfet_g5v0d10v5__toxe_slope3/sqrt(l*w*mult)))}
+ dtox = 0.0
+ ndep = 1.7000000000000000e+17
+ nsd = 1.0e+20
+ rshg = 0.1
+ rsh = 1.0
* Threshold Voltage Parameters
+ vth0 = {0.787009917893+sky130_fd_pr__nfet_g5v0d10v5__vth0_slope_spectre*(sky130_fd_pr__nfet_g5v0d10v5__vth0_slope/sqrt(l*w*mult))} lvth0 = 3.87857425989731e-8
+ k1 = 0.88325
+ k2 = -0.040038259480075 lk2 = 9.50430118852657e-09 wk2 = -2.11758236813575e-22
+ k3 = -0.884
+ dvt0 = 0.0
+ dvt1 = 0.53
+ dvt2 = -0.19251
+ dvt0w = 0.16
+ dvt1w = 6909100.0
+ dvt2w = -0.036016
+ w0 = 0.0
+ k3b = 0.43
* NEW BSIM4 Parameters for Level 54
+ phin = 0.0
+ lpe0 = 2.5e-8
+ lpeb = -2.182e-7
+ vbm = -3.0
+ dvtp0 = 0.0
+ dvtp1 = 0.0
* Mobility Parameters
+ vsat = 110438.41375 lvsat = -0.0373802453729513
+ ua = -1.026911477714e-10 lua = 3.32217678357012e-16
+ ub = 1.872940661065e-18 lub = -1.10989424561367e-24
+ uc = 6.6204e-11
+ rdsw = 724.62
+ prwb = 0.05626
+ prwg = 0.048
+ wr = 1.0
+ u0 = 0.0426265377433 lu0 = -1.28588044082879e-10
+ a0 = 1.03171951755192 la0 = -6.85477893002309e-7
+ keta = -0.01729370857425 lketa = -3.14965947512488e-8
+ a1 = 0.0
+ a2 = 0.65972622
+ ags = 0.158828805742775 lags = -9.98658111432839e-8
+ b0 = 3.2933e-8
+ b1 = 0.0
* BSIM4 - Mobility Parameters
+ eu = 1.67
+ rdswmin = 0.0
+ rdw = 0.0
+ rdwmin = 0.0
+ rsw = 0.0
+ rswmin = 0.0
* Subthreshold Current Parameters
+ voff = {-0.20613+sky130_fd_pr__nfet_g5v0d10v5__voff_slope_spectre*(sky130_fd_pr__nfet_g5v0d10v5__voff_slope/sqrt(l*w*mult))}
+ nfactor = {0.9704065953675+sky130_fd_pr__nfet_g5v0d10v5__nfactor_slope_spectre*(sky130_fd_pr__nfet_g5v0d10v5__nfactor_slope/sqrt(l*w*mult))} lnfactor = -3.09284150215799e-7
+ up = 0.0
+ ud = 0.0
+ lp = 1.0
+ tvfbsdoff = 0.0
+ tvoff = 0.0
+ cit = -8.0e-4
+ cdsc = 0.0
+ cdscb = 0.0
+ cdscd = 0.0
+ eta0 = 0.032
+ etab = -0.01932
+ dsub = 0.504
* BSIM4 - Sub-threshold parameters
+ voffl = -4.2579486e-7
+ minv = 0.0
* Rout Parameters
+ pclm = 0.2603764168025 lpclm = 5.76328623160162e-7
+ pdiblc1 = 0.21098
+ pdiblc2 = 2.0e-4
+ pdiblcb = -0.26831
+ drout = 0.36075
+ pscbe1 = 937310000.0
+ pscbe2 = 1.68e-6
+ pvag = 1.99
+ delta = 0.0246
+ alpha0 = 1.4467e-5
+ alpha1 = 0.0
+ beta0 = 21.51522485 lbeta0 = 1.94377275939346e-5
* BSIM4 - Rout Parameters
+ fprout = 10.125
+ pdits = 0.0
+ pditsl = 0.0
+ pditsd = 0.0
* BSIM4 - Gate Induced Drain Leakage Model Parameters
+ agidl = 5.06e-11
+ bgidl = 1058000000.0
+ cgidl = 4000.0
+ egidl = 0.8
* BSIM4 - Gate Leakage Current Parameters
+ aigbacc = 1.0
+ bigbacc = 0.0
+ cigbacc = 0.0
+ nigbacc = 1.0
+ aigbinv = 0.35
+ bigbinv = 0.03
+ cigbinv = 0.006
+ eigbinv = 1.1
+ nigbinv = 3.0
+ aigc = 0.43
+ bigc = 0.054
+ cigc = 0.075
+ nigc = 1.0
+ aigsd = 0.43
+ bigsd = 0.054
+ cigsd = 0.075
+ dlcig = 0.0
+ poxedge = 1.0
+ pigcd = 1.0
+ ntox = 1.0
+ toxref = 1.16e-8
* Temperature Effects Parameters
+ kt1 = -0.414198193 lkt1 = 8.97125888950827e-8
+ kt2 = -0.019151
+ at = 236454.62 lat = -0.59808392596722
+ ute = -1.33682731 lute = 2.9904196298361e-7
+ ua1 = 3.0044e-9
+ ub1 = -3.7525e-18
+ uc1 = -5.9821e-11
+ kt1l = 0.0
+ prt = 0.0
* BSIM4 - High Speed RF Model Parameters
+ xrcrg1 = 12.0
+ xrcrg2 = 1.0
+ rbpb = 50.0
+ rbpd = 50.0
+ rbps = 50.0
+ rbdb = 50.0
+ rbsb = 50.0
+ gbmin = 1.0e-12
* BSIM4 - Flicker and Thermal Noise Parameters
+ noia = 2.6e+41
+ noib = 0.0
+ noic = 0.0
+ em = 4.1000000e+7
+ af = 1.0
+ ef = 0.89
+ kf = 0.0
+ ntnoi = 1.0
* BSIM4 - Layout Dependent Parasitic Model Parameters
+ dmcg = 0.0
+ dmcgt = 0.0
+ dmdg = 0.0
+ xgw = 0.0
+ xgl = 0.0
+ ngcon = 1.0
* Diode DC IV Parameters
* BSIM4 - Diode DC IV parameters
+ diomod = 1.0
+ njs = 1.0773
+ jss = 0.000375
+ jsws = 5.84e-11
+ xtis = 0.76
+ bvs = 12.636
+ xjbvs = 1.0
+ ijthsrev = 0.1
+ ijthsfwd = 0.1
* Diode and FET Capacitance Parameters
+ tpb = 0.001344
+ tpbsw = 0.00099005
+ tpbswg = 0.0
+ tcj = 0.00067434
+ tcjsw = 0.0002493
+ tcjswg = 0.0
+ cgdo = 2.461036368e-10
+ cgso = 2.461036368e-10
+ cgbo = 0.0
+ capmod = 2.0
+ xpart = 0.0
+ cgsl = 4.0116e-11
+ cgdl = 4.0116e-11
+ cf = 0.0
+ clc = 1.0e-7
+ cle = 0.6
+ dlc = 7.81225e-8
+ dwc = -2.252e-8
+ vfbcv = -1.0
+ acde = 0.4176
+ moin = 15.0
+ noff = 4.0
+ voffcv = -0.4104
+ ngate = 1.0e+23
+ lwc = 0.0
+ llc = 0.0
+ lwlc = 0.0
+ wlc = 0.0
+ wwc = 0.0
+ wwlc = 0.0
* BSIM4 - FET and Diode capacitance parameters
+ ckappas = 0.6
+ cjs = 0.000741207936
+ mjs = 0.295
+ pbs = 0.72468
+ cjsws = 7.232371132e-11
+ mjsws = 0.037586
+ pbsws = 0.29067
+ cjswgs = 4.583682e-11
+ mjswgs = 0.78692
+ pbswgs = 0.54958
* Stress Parameters
+ saref = 3.0e-6
+ sbref = 3.0e-6
+ wlod = {0+sky130_fd_pr__nfet_g5v0d10v5__wlod_diff}
+ kvth0 = {0+sky130_fd_pr__nfet_g5v0d10v5__kvth0_diff}
+ lkvth0 = {0+sky130_fd_pr__nfet_g5v0d10v5__lkvth0_diff}
+ wkvth0 = {0+sky130_fd_pr__nfet_g5v0d10v5__wkvth0_diff}
+ pkvth0 = 0.0
+ llodvth = 0.0
+ wlodvth = 1.0
+ stk2 = 0.0
+ lodk2 = 1.0
+ lodeta0 = 1.0
+ ku0 = {0+sky130_fd_pr__nfet_g5v0d10v5__ku0_diff}
+ lku0 = {0+sky130_fd_pr__nfet_g5v0d10v5__lku0_diff}
+ wku0 = {0+sky130_fd_pr__nfet_g5v0d10v5__wku0_diff}
+ pku0 = 0.0
+ llodku0 = 0.0
+ wlodku0 = 1.0
+ kvsat = {0+sky130_fd_pr__nfet_g5v0d10v5__kvsat_diff}
+ steta0 = 0.0
+ tku0 = 0.0
.model sky130_fd_pr__nfet_g5v0d10v5__model.3 nmos
* DC IV MOS Parameters
+ lmin = 2e-06 lmax = 4e-06 wmin = 2.0e-05 wmax = 1.0e-4
+ level = 54.0
+ tnom = 30.0
+ version = 4.5
+ toxm = 1.16e-8
+ xj = 1.5e-7
+ lln = 1.0
+ lwn = 1.0
+ wln = 1.0
+ wwn = 1.0
+ lint = 8.86345e-8
+ ll = 0.0
+ lw = 0.0
+ lwl = 0.0
+ wint = -1.174e-9
+ wl = 0.0
+ ww = 0.0
+ wwl = 0.0
+ xl = 0.0
+ xw = 0.0
+ mobmod = 0.0
+ binunit = 2.0
+ dwg = -4.1292e-9
+ dwb = -1.6944e-9
* BSIM4 - Model Selectors
+ igcmod = 0.0
+ igbmod = 0.0
+ rgatemod = 0.0
+ rbodymod = 1.0
+ trnqsmod = 0.0
+ acnqsmod = 0.0
+ fnoimod = 1.0
+ tnoimod = 1.0
+ permod = 1.0
+ geomod = 0.0
+ rdsmod = 0.0
+ tempmod = 0.0
+ lintnoi = 0.0
+ vfbsdoff = 0.0
+ lambda = 0.0
+ vtl = 0.0
+ lc = 5.0e-9
+ xn = 3.0
+ rnoia = 0.794
+ rnoib = 0.38
+ tnoia = 7.50e+6
+ tnoib = 7.2e+6
* BSIM4 - Process Parameters
+ epsrox = 3.9
+ toxe = {1.11128e-08+sky130_fd_pr__nfet_g5v0d10v5__toxe_slope_spectre*(1.11128e-08*(sky130_fd_pr__nfet_g5v0d10v5__toxe_slope/sqrt(l*w*mult)))}
+ dtox = 0.0
+ ndep = 1.7000000000000000e+17
+ nsd = 1.0e+20
+ rshg = 0.1
+ rsh = 1.0
* Threshold Voltage Parameters
+ vth0 = {0.803592063161+sky130_fd_pr__nfet_g5v0d10v5__vth0_slope_spectre*(sky130_fd_pr__nfet_g5v0d10v5__vth0_slope/sqrt(l*w*mult))} lvth0 = -2.46033381635131e-8
+ k1 = 0.88325
+ k2 = -0.04195453332085 lk2 = 1.68297006041463e-8
+ k3 = -0.884
+ dvt0 = 0.0
+ dvt1 = 0.53
+ dvt2 = -0.19251
+ dvt0w = 0.16
+ dvt1w = 6909100.0
+ dvt2w = -0.036016
+ w0 = 0.0
+ k3b = 0.43
* NEW BSIM4 Parameters for Level 54
+ phin = 0.0
+ lpe0 = 2.5e-8
+ lpeb = -2.182e-7
+ vbm = -3.0
+ dvtp0 = 0.0
+ dvtp1 = 0.0
* Mobility Parameters
+ vsat = 93870.327025 lvsat = 0.0259550933613947
+ ua = 1.037893167889e-10 lua = -4.57101594412049e-16 wua = 1.97215226305253e-31
+ ub = 1.535692017715e-18 lub = 1.79316598028321e-25
+ uc = 6.6204e-11
+ rdsw = 724.62
+ prwb = 0.05626
+ prwg = 0.048
+ wr = 1.0
+ u0 = 0.04299289831795 lu0 = -1.52908596997534e-9
+ a0 = 0.484478507841295 la0 = 1.40647727928978e-6
+ keta = -0.0390877390815 lketa = 5.18161212837616e-8
+ a1 = 0.0
+ a2 = 0.65972622
+ ags = 0.1175536953818 lags = 5.79178327620362e-8
+ b0 = 3.2933e-8
+ b1 = 0.0
* BSIM4 - Mobility Parameters
+ eu = 1.67
+ rdswmin = 0.0
+ rdw = 0.0
+ rdwmin = 0.0
+ rsw = 0.0
+ rswmin = 0.0
* Subthreshold Current Parameters
+ voff = {-0.20613+sky130_fd_pr__nfet_g5v0d10v5__voff_slope_spectre*(sky130_fd_pr__nfet_g5v0d10v5__voff_slope/sqrt(l*w*mult))}
+ nfactor = {0.93082131177+sky130_fd_pr__nfet_g5v0d10v5__nfactor_slope_spectre*(sky130_fd_pr__nfet_g5v0d10v5__nfactor_slope/sqrt(l*w*mult))} lnfactor = -1.57960259463844e-7
+ up = 0.0
+ ud = 0.0
+ lp = 1.0
+ tvfbsdoff = 0.0
+ tvoff = 0.0
+ cit = -8.0e-4
+ cdsc = 0.0
+ cdscb = 0.0
+ cdscd = 0.0
+ eta0 = 0.032
+ etab = -0.01932
+ dsub = 0.504
* BSIM4 - Sub-threshold parameters
+ voffl = -4.2579486e-7
+ minv = 0.0
* Rout Parameters
+ pclm = 0.598489405835 lpclm = -7.16186381517036e-7
+ pdiblc1 = 0.21098
+ pdiblc2 = 2.0e-4
+ pdiblcb = -0.26831
+ drout = 0.36075
+ pscbe1 = 937310000.0
+ pscbe2 = 1.68e-6
+ pvag = 1.99
+ delta = 0.0246
+ alpha0 = 1.4467e-5
+ alpha1 = 0.0
+ beta0 = 23.895067196 lbeta0 = 1.03402304827677e-5
* BSIM4 - Rout Parameters
+ fprout = 10.125
+ pdits = 0.0
+ pditsl = 0.0
+ pditsd = 0.0
* BSIM4 - Gate Induced Drain Leakage Model Parameters
+ agidl = 5.06e-11
+ bgidl = 1058000000.0
+ cgidl = 4000.0
+ egidl = 0.8
* BSIM4 - Gate Leakage Current Parameters
+ aigbacc = 1.0
+ bigbacc = 0.0
+ cigbacc = 0.0
+ nigbacc = 1.0
+ aigbinv = 0.35
+ bigbinv = 0.03
+ cigbinv = 0.006
+ eigbinv = 1.1
+ nigbinv = 3.0
+ aigc = 0.43
+ bigc = 0.054
+ cigc = 0.075
+ nigc = 1.0
+ aigsd = 0.43
+ bigsd = 0.054
+ cigsd = 0.075
+ dlcig = 0.0
+ poxedge = 1.0
+ pigcd = 1.0
+ ntox = 1.0
+ toxref = 1.16e-8
* Temperature Effects Parameters
+ kt1 = -0.407134579 lkt1 = 6.27102926852489e-8
+ kt2 = -0.019151
+ at = 138327.392 lat = -0.222969929547552 pat = 8.470329472543e-22
+ ute = -1.22214538 lute = -1.39356205967221e-7
+ ua1 = 3.0044e-9
+ ub1 = -3.7525e-18
+ uc1 = -5.9821e-11
+ kt1l = 0.0
+ prt = 0.0
* BSIM4 - High Speed RF Model Parameters
+ xrcrg1 = 12.0
+ xrcrg2 = 1.0
+ rbpb = 50.0
+ rbpd = 50.0
+ rbps = 50.0
+ rbdb = 50.0
+ rbsb = 50.0
+ gbmin = 1.0e-12
* BSIM4 - Flicker and Thermal Noise Parameters
+ noia = 2.6e+41
+ noib = 0.0
+ noic = 0.0
+ em = 4.1000000e+7
+ af = 1.0
+ ef = 0.89
+ kf = 0.0
+ ntnoi = 1.0
* BSIM4 - Layout Dependent Parasitic Model Parameters
+ dmcg = 0.0
+ dmcgt = 0.0
+ dmdg = 0.0
+ xgw = 0.0
+ xgl = 0.0
+ ngcon = 1.0
* Diode DC IV Parameters
* BSIM4 - Diode DC IV parameters
+ diomod = 1.0
+ njs = 1.0773
+ jss = 0.000375
+ jsws = 5.84e-11
+ xtis = 0.76
+ bvs = 12.636
+ xjbvs = 1.0
+ ijthsrev = 0.1
+ ijthsfwd = 0.1
* Diode and FET Capacitance Parameters
+ tpb = 0.001344
+ tpbsw = 0.00099005
+ tpbswg = 0.0
+ tcj = 0.00067434
+ tcjsw = 0.0002493
+ tcjswg = 0.0
+ cgdo = 2.461036368e-10
+ cgso = 2.461036368e-10
+ cgbo = 0.0
+ capmod = 2.0
+ xpart = 0.0
+ cgsl = 4.0116e-11
+ cgdl = 4.0116e-11
+ cf = 0.0
+ clc = 1.0e-7
+ cle = 0.6
+ dlc = 7.81225e-8
+ dwc = -2.252e-8
+ vfbcv = -1.0
+ acde = 0.4176
+ moin = 15.0
+ noff = 4.0
+ voffcv = -0.4104
+ ngate = 1.0e+23
+ lwc = 0.0
+ llc = 0.0
+ lwlc = 0.0
+ wlc = 0.0
+ wwc = 0.0
+ wwlc = 0.0
* BSIM4 - FET and Diode capacitance parameters
+ ckappas = 0.6
+ cjs = 0.000741207936
+ mjs = 0.295
+ pbs = 0.72468
+ cjsws = 7.232371132e-11
+ mjsws = 0.037586
+ pbsws = 0.29067
+ cjswgs = 4.583682e-11
+ mjswgs = 0.78692
+ pbswgs = 0.54958
* Stress Parameters
+ saref = 3.0e-6
+ sbref = 3.0e-6
+ wlod = {0+sky130_fd_pr__nfet_g5v0d10v5__wlod_diff}
+ kvth0 = {0+sky130_fd_pr__nfet_g5v0d10v5__kvth0_diff}
+ lkvth0 = {0+sky130_fd_pr__nfet_g5v0d10v5__lkvth0_diff}
+ wkvth0 = {0+sky130_fd_pr__nfet_g5v0d10v5__wkvth0_diff}
+ pkvth0 = 0.0
+ llodvth = 0.0
+ wlodvth = 1.0
+ stk2 = 0.0
+ lodk2 = 1.0
+ lodeta0 = 1.0
+ ku0 = {0+sky130_fd_pr__nfet_g5v0d10v5__ku0_diff}
+ lku0 = {0+sky130_fd_pr__nfet_g5v0d10v5__lku0_diff}
+ wku0 = {0+sky130_fd_pr__nfet_g5v0d10v5__wku0_diff}
+ pku0 = 0.0
+ llodku0 = 0.0
+ wlodku0 = 1.0
+ kvsat = {0+sky130_fd_pr__nfet_g5v0d10v5__kvsat_diff}
+ steta0 = 0.0
+ tku0 = 0.0
.model sky130_fd_pr__nfet_g5v0d10v5__model.4 nmos
* DC IV MOS Parameters
+ lmin = 1e-06 lmax = 2e-06 wmin = 2.0e-05 wmax = 1.0e-4
+ level = 54.0
+ tnom = 30.0
+ version = 4.5
+ toxm = 1.16e-8
+ xj = 1.5e-7
+ lln = 1.0
+ lwn = 1.0
+ wln = 1.0
+ wwn = 1.0
+ lint = 8.86345e-8
+ ll = 0.0
+ lw = 0.0
+ lwl = 0.0
+ wint = -1.174e-9
+ wl = 0.0
+ ww = 0.0
+ wwl = 0.0
+ xl = 0.0
+ xw = 0.0
+ mobmod = 0.0
+ binunit = 2.0
+ dwg = -4.1292e-9
+ dwb = -1.6944e-9
* BSIM4 - Model Selectors
+ igcmod = 0.0
+ igbmod = 0.0
+ rgatemod = 0.0
+ rbodymod = 1.0
+ trnqsmod = 0.0
+ acnqsmod = 0.0
+ fnoimod = 1.0
+ tnoimod = 1.0
+ permod = 1.0
+ geomod = 0.0
+ rdsmod = 0.0
+ tempmod = 0.0
+ lintnoi = 0.0
+ vfbsdoff = 0.0
+ lambda = 0.0
+ vtl = 0.0
+ lc = 5.0e-9
+ xn = 3.0
+ rnoia = 0.794
+ rnoib = 0.38
+ tnoia = 7.50e+6
+ tnoib = 7.2e+6
* BSIM4 - Process Parameters
+ epsrox = 3.9
+ toxe = {1.11128e-08+sky130_fd_pr__nfet_g5v0d10v5__toxe_slope_spectre*(1.11128e-08*(sky130_fd_pr__nfet_g5v0d10v5__toxe_slope/sqrt(l*w*mult)))}
+ dtox = 0.0
+ ndep = 1.7000000000000000e+17
+ nsd = 1.0e+20
+ rshg = 0.1
+ rsh = 1.0
* Threshold Voltage Parameters
+ vth0 = {0.785561574921+sky130_fd_pr__nfet_g5v0d10v5__vth0_slope_spectre*(sky130_fd_pr__nfet_g5v0d10v5__vth0_slope/sqrt(l*w*mult))} lvth0 = 8.26139169667085e-9
+ k1 = 0.88325
+ k2 = -0.0399663514591 lk2 = 1.32057798910968e-8
+ k3 = -0.884
+ dvt0 = 0.0
+ dvt1 = 0.53
+ dvt2 = -0.19251
+ dvt0w = 0.16
+ dvt1w = 6909100.0
+ dvt2w = -0.036016
+ w0 = 0.0
+ k3b = 0.43
* NEW BSIM4 Parameters for Level 54
+ phin = 0.0
+ lpe0 = 2.5e-8
+ lpeb = -2.182e-7
+ vbm = -3.0
+ dvtp0 = 0.0
+ dvtp1 = 0.0
* Mobility Parameters
+ vsat = 119548.429093 lvsat = -0.020849179299113
+ ua = -1.434293897823e-10 lua = -6.48839416481854e-18
+ ub = 1.73676328342e-18 lub = -1.8718223118142e-25
+ uc = 6.6204e-11
+ rdsw = 724.62
+ prwb = 0.05626
+ prwg = 0.048
+ wr = 1.0
+ u0 = 0.04062432093363 lu0 = 2.78819345432367e-9
+ a0 = 1.66774023460685 la0 = -7.50290551199328e-7
+ keta = 0.00292164334800001 lketa = -2.47556823613434e-8
+ a1 = 0.0
+ a2 = 0.65972622
+ ags = 0.169635646542 lags = -3.70135541581461e-8
+ b0 = 3.2933e-8
+ b1 = 0.0
* BSIM4 - Mobility Parameters
+ eu = 1.67
+ rdswmin = 0.0
+ rdw = 0.0
+ rdwmin = 0.0
+ rsw = 0.0
+ rswmin = 0.0
* Subthreshold Current Parameters
+ voff = {-0.20613+sky130_fd_pr__nfet_g5v0d10v5__voff_slope_spectre*(sky130_fd_pr__nfet_g5v0d10v5__voff_slope/sqrt(l*w*mult))}
+ nfactor = {0.90016329917+sky130_fd_pr__nfet_g5v0d10v5__nfactor_slope_spectre*(sky130_fd_pr__nfet_g5v0d10v5__nfactor_slope/sqrt(l*w*mult))} lnfactor = -1.02078949499433e-7
+ up = 0.0
+ ud = 0.0
+ lp = 1.0
+ tvfbsdoff = 0.0
+ tvoff = 0.0
+ cit = -8.0e-4
+ cdsc = 0.0
+ cdscb = 0.0
+ cdscd = 0.0
+ eta0 = 0.032
+ etab = -0.01932
+ dsub = 0.504
* BSIM4 - Sub-threshold parameters
+ voffl = -4.2579486e-7
+ minv = 0.0
* Rout Parameters
+ pclm = 0.0998655211199999 lpclm = 1.92670830493421e-7
+ pdiblc1 = 0.21098
+ pdiblc2 = 2.0e-4
+ pdiblcb = -0.26831
+ drout = 0.36075
+ pscbe1 = 937310000.0
+ pscbe2 = 1.68e-6
+ pvag = 1.99
+ delta = 0.0246
+ alpha0 = 1.4467e-5
+ alpha1 = 0.0
+ beta0 = 27.155752708 lbeta0 = 4.39687791879445e-6
* BSIM4 - Rout Parameters
+ fprout = 10.125
+ pdits = 0.0
+ pditsl = 0.0
+ pditsd = 0.0
* BSIM4 - Gate Induced Drain Leakage Model Parameters
+ agidl = 5.06e-11
+ bgidl = 1058000000.0
+ cgidl = 4000.0
+ egidl = 0.8
* BSIM4 - Gate Leakage Current Parameters
+ aigbacc = 1.0
+ bigbacc = 0.0
+ cigbacc = 0.0
+ nigbacc = 1.0
+ aigbinv = 0.35
+ bigbinv = 0.03
+ cigbinv = 0.006
+ eigbinv = 1.1
+ nigbinv = 3.0
+ aigc = 0.43
+ bigc = 0.054
+ cigc = 0.075
+ nigc = 1.0
+ aigsd = 0.43
+ bigsd = 0.054
+ cigsd = 0.075
+ dlcig = 0.0
+ poxedge = 1.0
+ pigcd = 1.0
+ ntox = 1.0
+ toxref = 1.16e-8
* Temperature Effects Parameters
+ kt1 = -0.38095731 lkt1 = 1.49961729836101e-8
+ kt2 = -0.019151
+ at = 9418.15199999999 lat = 0.011996938386888
+ ute = -1.2986
+ ua1 = 3.0044e-9
+ ub1 = -3.9994838462e-18 lub1 = 4.50185112967972e-25
+ uc1 = -5.9821e-11
+ kt1l = 0.0
+ prt = 0.0
* BSIM4 - High Speed RF Model Parameters
+ xrcrg1 = 12.0
+ xrcrg2 = 1.0
+ rbpb = 50.0
+ rbpd = 50.0
+ rbps = 50.0
+ rbdb = 50.0
+ rbsb = 50.0
+ gbmin = 1.0e-12
* BSIM4 - Flicker and Thermal Noise Parameters
+ noia = 2.6e+41
+ noib = 0.0
+ noic = 0.0
+ em = 4.1000000e+7
+ af = 1.0
+ ef = 0.89
+ kf = 0.0
+ ntnoi = 1.0
* BSIM4 - Layout Dependent Parasitic Model Parameters
+ dmcg = 0.0
+ dmcgt = 0.0
+ dmdg = 0.0
+ xgw = 0.0
+ xgl = 0.0
+ ngcon = 1.0
* Diode DC IV Parameters
* BSIM4 - Diode DC IV parameters
+ diomod = 1.0
+ njs = 1.0773
+ jss = 0.000375
+ jsws = 5.84e-11
+ xtis = 0.76
+ bvs = 12.636
+ xjbvs = 1.0
+ ijthsrev = 0.1
+ ijthsfwd = 0.1
* Diode and FET Capacitance Parameters
+ tpb = 0.001344
+ tpbsw = 0.00099005
+ tpbswg = 0.0
+ tcj = 0.00067434
+ tcjsw = 0.0002493
+ tcjswg = 0.0
+ cgdo = 2.461036368e-10
+ cgso = 2.461036368e-10
+ cgbo = 0.0
+ capmod = 2.0
+ xpart = 0.0
+ cgsl = 4.0116e-11
+ cgdl = 4.0116e-11
+ cf = 0.0
+ clc = 1.0e-7
+ cle = 0.6
+ dlc = 7.81225e-8
+ dwc = -2.252e-8
+ vfbcv = -1.0
+ acde = 0.4176
+ moin = 15.0
+ noff = 4.0
+ voffcv = -0.4104
+ ngate = 1.0e+23