* Copyright 2020 The SkyWater PDK Authors
*
* Licensed under the Apache License, Version 2.0 (the "License");
* you may not use this file except in compliance with the License.
* You may obtain a copy of the License at
*
*     https://www.apache.org/licenses/LICENSE-2.0
*
* Unless required by applicable law or agreed to in writing, software
* distributed under the License is distributed on an "AS IS" BASIS,
* WITHOUT WARRANTIES OR CONDITIONS OF ANY KIND, either express or implied.
* See the License for the specific language governing permissions and
* limitations under the License.

* SKY130 Spice File.
.param sky130_fd_pr__nfet_g5v0d10v5__toxe_slope_spectre = 0.0
.param sky130_fd_pr__nfet_g5v0d10v5__vth0_slope_spectre = 0.0
.param sky130_fd_pr__nfet_g5v0d10v5__voff_slope_spectre = 0.0
.param sky130_fd_pr__nfet_g5v0d10v5__nfactor_slope_spectre = 0.0
* statistics {
*   process {
*   }
*   mismatch {
*     vary sky130_fd_pr__nfet_g5v0d10v5__toxe_slope_spectre dist=gauss std = 1.0
*     vary sky130_fd_pr__nfet_g5v0d10v5__vth0_slope_spectre dist=gauss std = 1.0
*     vary sky130_fd_pr__nfet_g5v0d10v5__voff_slope_spectre dist=gauss std = 1.0
*     vary sky130_fd_pr__nfet_g5v0d10v5__nfactor_slope_spectre dist=gauss std = 1.0
*   }
* }
.subckt  sky130_fd_pr__nfet_g5v0d10v5 d g s b
+ 
.param  l = 1 w = 1 ad = 0 as = 0 pd = 0 ps = 0 nrd = 0 nrs = 0 sa = 0 sb = 0 sd = 0 mult = 1 nf = 1.0
msky130_fd_pr__nfet_g5v0d10v5 d g s b sky130_fd_pr__nfet_g5v0d10v5__model l = {l} w = {w} ad = {ad} as = {as} pd = {pd} ps = {ps} nrd = {nrd} nrs = {nrs} sa = {sa} sb = {sb} sd = {sd} nf = {nf}
.model sky130_fd_pr__nfet_g5v0d10v5__model.0 nmos
* DC IV MOS Parameters
+ lmin = 4.95e-07 lmax = 5.05e-07 wmin = 9.995e-06 wmax = 1.0005e-5
+ level = 54.0
+ tnom = 30.0
+ version = 4.5
+ toxm = 1.16e-8
+ xj = 1.5e-7
+ lln = 1.0
+ lwn = 1.0
+ wln = 1.0
+ wwn = 1.0
+ lint = {7.6507e-008+sky130_fd_pr__nfet_g5v0d10v5__lint_diff}
+ ll = 0.0
+ lw = 0.0
+ lwl = 0.0
+ wint = {2.1346e-008+sky130_fd_pr__nfet_g5v0d10v5__wint_diff}
+ wl = 0.0
+ ww = 0.0
+ wwl = 0.0
+ xl = 0.0
+ xw = 0.0
+ mobmod = 0.0
+ binunit = 2.0
+ dwg = -4.1292e-9
+ dwb = -1.6944e-9
* BSIM4 - Model Selectors
+ igcmod = 0.0
+ igbmod = 0.0
+ rgatemod = 0.0
+ rbodymod = 1.0
+ trnqsmod = 0.0
+ acnqsmod = 0.0
+ fnoimod = 1.0
+ tnoimod = 1.0
+ permod = 1.0
+ geomod = 0.0
+ rdsmod = 0.0
+ tempmod = 0.0
+ lintnoi = 0.0
+ vfbsdoff = 0.0
+ lambda = 0.0
+ vtl = 0.0
+ lc = 5.0e-9
+ xn = 3.0
+ rnoia = 0.794
+ rnoib = 0.38
+ tnoia = 7.50e+6
+ tnoib = 7.2e+6
* BSIM4 - Process Parameters
+ epsrox = 3.9
+ toxe = {1.16e-008*sky130_fd_pr__nfet_g5v0d10v5__toxe_mult+sky130_fd_pr__nfet_g5v0d10v5__toxe_slope_spectre*(1.16e-08*sky130_fd_pr__nfet_g5v0d10v5__toxe_mult*(sky130_fd_pr__nfet_g5v0d10v5__toxe_slope1/sqrt(l*w*mult)))}
+ dtox = 0.0
+ ndep = 1.7e+17
+ nsd = 1.0e+20
+ rshg = 0.1
+ rsh = {1*sky130_fd_pr__nfet_g5v0d10v5__rshn_mult}
* Threshold Voltage Parameters
+ vth0 = {0.84203+sky130_fd_pr__nfet_g5v0d10v5__vth0_diff_0+sky130_fd_pr__nfet_g5v0d10v5__vth0_slope_spectre*(sky130_fd_pr__nfet_g5v0d10v5__vth0_slope/sqrt(l*w*mult))}
+ k1 = 0.88325
+ k2 = {-0.029179+sky130_fd_pr__nfet_g5v0d10v5__k2_diff_0}
+ k3 = -0.884
+ dvt0 = 0.0
+ dvt1 = 0.53
+ dvt2 = -0.19251
+ dvt0w = 0.16
+ dvt1w = 6909100.0
+ dvt2w = -0.036016
+ w0 = 0.0
+ k3b = 0.43
* NEW BSIM4 Parameters for Level 54
+ phin = 0.0
+ lpe0 = 2.5e-8
+ lpeb = -2.182e-7
+ vbm = -3.0
+ dvtp0 = 0.0
+ dvtp1 = 0.0
* Mobility Parameters
+ vsat = {107890+sky130_fd_pr__nfet_g5v0d10v5__vsat_diff_0}
+ ua = {-1.498e-010+sky130_fd_pr__nfet_g5v0d10v5__ua_diff_0}
+ ub = {2.1238e-018+sky130_fd_pr__nfet_g5v0d10v5__ub_diff_0}
+ uc = 6.6204e-11
+ rdsw = {724.62+sky130_fd_pr__nfet_g5v0d10v5__rdsw_diff_0}
+ prwb = 0.05626
+ prwg = 0.048
+ wr = 1.0
+ u0 = {0.045006+sky130_fd_pr__nfet_g5v0d10v5__u0_diff_0}
+ a0 = {1.1222+sky130_fd_pr__nfet_g5v0d10v5__a0_diff_0}
+ keta = {-0.01066+sky130_fd_pr__nfet_g5v0d10v5__keta_diff_0}
+ a1 = 0.0
+ a2 = 0.65972622
+ ags = {0.16025+sky130_fd_pr__nfet_g5v0d10v5__ags_diff_0}
+ b0 = {3.2933e-008+sky130_fd_pr__nfet_g5v0d10v5__b0_diff_0}
+ b1 = {0+sky130_fd_pr__nfet_g5v0d10v5__b1_diff_0}
* BSIM4 - Mobility Parameters
+ eu = 1.67
+ rdswmin = 0.0
+ rdw = 0.0
+ rdwmin = 0.0
+ rsw = 0.0
+ rswmin = 0.0
* Subthreshold Current Parameters
+ voff = {-0.20613+sky130_fd_pr__nfet_g5v0d10v5__voff_diff_0+sky130_fd_pr__nfet_g5v0d10v5__voff_slope_spectre*(sky130_fd_pr__nfet_g5v0d10v5__voff_slope/sqrt(l*w*mult))}
+ nfactor = {0.5412+sky130_fd_pr__nfet_g5v0d10v5__nfactor_diff_0+sky130_fd_pr__nfet_g5v0d10v5__nfactor_slope_spectre*(sky130_fd_pr__nfet_g5v0d10v5__nfactor_slope/sqrt(l*w*mult))}
+ up = 0.0
+ ud = 0.0
+ lp = 1.0
+ tvfbsdoff = 0.0
+ tvoff = {0+sky130_fd_pr__nfet_g5v0d10v5__tvoff_diff_0}
+ cit = -0.0008
+ cdsc = 0.0
+ cdscb = 0.0
+ cdscd = 0.0
+ eta0 = {0.032+sky130_fd_pr__nfet_g5v0d10v5__eta0_diff_0}
+ etab = -0.01932
+ dsub = 0.504
* BSIM4 - Sub-threshold parameters
+ voffl = -4.2579486e-7
+ minv = 0.0
* Rout Parameters
+ pclm = {1.2848+sky130_fd_pr__nfet_g5v0d10v5__pclm_diff_0}
+ pdiblc1 = 0.21098
+ pdiblc2 = 0.0002
+ pdiblcb = -0.26831
+ drout = 0.36075
+ pscbe1 = 9.3731e+8
+ pscbe2 = 1.68e-6
+ pvag = 1.99
+ delta = 0.0246
+ alpha0 = 1.4467e-5
+ alpha1 = 0.0
+ beta0 = 36.96
* BSIM4 - Rout Parameters
+ fprout = 10.125
+ pdits = {0+sky130_fd_pr__nfet_g5v0d10v5__pdits_diff_0}
+ pditsl = 0.0
+ pditsd = {0+sky130_fd_pr__nfet_g5v0d10v5__pditsd_diff_0}
* BSIM4 - Gate Induced Drain Leakage Model Parameters
+ agidl = {5.06e-011+sky130_fd_pr__nfet_g5v0d10v5__agidl_diff_0}
+ bgidl = {1.058e009+sky130_fd_pr__nfet_g5v0d10v5__bgidl_diff_0}
+ cgidl = {4000+sky130_fd_pr__nfet_g5v0d10v5__cgidl_diff_0}
+ egidl = 0.8
* BSIM4 - Gate Leakage Current Parameters
+ aigbacc = 1.0
+ bigbacc = 0.0
+ cigbacc = 0.0
+ nigbacc = 1.0
+ aigbinv = 0.35
+ bigbinv = 0.03
+ cigbinv = 0.006
+ eigbinv = 1.1
+ nigbinv = 3.0
+ aigc = 0.43
+ bigc = 0.054
+ cigc = 0.075
+ nigc = 1.0
+ aigsd = 0.43
+ bigsd = 0.054
+ cigsd = 0.075
+ dlcig = 0.0
+ poxedge = 1.0
+ pigcd = 1.0
+ ntox = 1.0
+ toxref = 1.16e-8
* Temperature Effects Parameters
+ kt1 = {-0.35073+sky130_fd_pr__nfet_g5v0d10v5__kt1_diff_0}
+ kt2 = -0.019151
+ at = 49600.0
+ ute = -1.2986
+ ua1 = 3.0044e-9
+ ub1 = -3.7525e-18
+ uc1 = -5.9821e-11
+ kt1l = 0.0
+ prt = 0.0
* BSIM4 - High Speed RF Model Parameters
+ xrcrg1 = 12.0
+ xrcrg2 = 1.0
+ rbpb = 50.0
+ rbpd = 50.0
+ rbps = 50.0
+ rbdb = 50.0
+ rbsb = 50.0
+ gbmin = 1.0e-12
* BSIM4 - Flicker and Thermal Noise Parameters
+ noia = 2.6e+41
+ noib = 0.0
+ noic = 0.0
+ em = 4.1000000e+7
+ af = 1.0
+ ef = 0.89
+ kf = 0.0
+ ntnoi = 1.0
* BSIM4 - Layout Dependent Parasitic Model Parameters
+ dmcg = 0.0
+ dmcgt = 0.0
+ dmdg = 0.0
+ xgw = 0.0
+ xgl = 0.0
+ ngcon = 1.0
* Diode DC IV Parameters
* BSIM4 - Diode DC IV parameters
+ diomod = 1.0
+ njs = 1.0773
+ jss = 0.000375
+ jsws = 5.84e-11
+ xtis = 0.76
+ bvs = 12.636
+ xjbvs = 1.0
+ ijthsrev = 0.1
+ ijthsfwd = 0.1
* Diode and FET Capacitance Parameters
+ tpb = 0.001344
+ tpbsw = 0.00099005
+ tpbswg = 0.0
+ tcj = 0.00067434
+ tcjsw = 0.0002493
+ tcjswg = 0.0
+ cgdo = {3.0674e-010*sky130_fd_pr__nfet_g5v0d10v5__overlap_mult}
+ cgso = {3.0674e-010*sky130_fd_pr__nfet_g5v0d10v5__overlap_mult}
+ cgbo = 0.0
+ capmod = 2.0
+ xpart = 0.0
+ cgsl = {5e-011*sky130_fd_pr__nfet_g5v0d10v5__overlap_mult}
+ cgdl = {5e-011*sky130_fd_pr__nfet_g5v0d10v5__overlap_mult}
+ cf = 0.0
+ clc = 1.0e-7
+ cle = 0.6
+ dlc = {6.5995e-008+sky130_fd_pr__nfet_g5v0d10v5__dlc_diff+sky130_fd_pr__nfet_g5v0d10v5__dlc_rotweak}
+ dwc = {0+sky130_fd_pr__nfet_g5v0d10v5__dwc_diff}
+ vfbcv = -1.0
+ acde = 0.4176
+ moin = 15.0
+ noff = 4.0
+ voffcv = -0.4104
+ ngate = 1.0e+23
+ lwc = 0.0
+ llc = 0.0
+ lwlc = 0.0
+ wlc = 0.0
+ wwc = 0.0
+ wwlc = 0.0
* BSIM4 - FET and Diode capacitance parameters
+ ckappas = 0.6
+ cjs = {0.0008512*sky130_fd_pr__nfet_g5v0d10v5__ajunction_mult}
+ mjs = 0.295
+ pbs = 0.72468
+ cjsws = {8.5204e-011*sky130_fd_pr__nfet_g5v0d10v5__pjunction_mult}
+ mjsws = 0.037586
+ pbsws = 0.29067
+ cjswgs = {5.4e-011*sky130_fd_pr__nfet_g5v0d10v5__pjunction_mult}
+ mjswgs = 0.78692
+ pbswgs = 0.54958
* Stress Parameters
+ saref = 1.81e-6
+ sbref = 1.81e-6
+ wlod = {0+sky130_fd_pr__nfet_g5v0d10v5__wlod_diff}
+ kvth0 = {0+sky130_fd_pr__nfet_g5v0d10v5__kvth0_diff}
+ lkvth0 = {0+sky130_fd_pr__nfet_g5v0d10v5__lkvth0_diff}
+ wkvth0 = {0+sky130_fd_pr__nfet_g5v0d10v5__wkvth0_diff}
+ pkvth0 = 0.0
+ llodvth = 0.0
+ wlodvth = 1.0
+ stk2 = 0.0
+ lodk2 = 1.0
+ lodeta0 = 1.0
+ ku0 = {0+sky130_fd_pr__nfet_g5v0d10v5__ku0_diff}
+ lku0 = {0+sky130_fd_pr__nfet_g5v0d10v5__lku0_diff}
+ wku0 = {0+sky130_fd_pr__nfet_g5v0d10v5__wku0_diff}
+ pku0 = 0.0
+ llodku0 = 0.0
+ wlodku0 = 1.0
+ kvsat = {0+sky130_fd_pr__nfet_g5v0d10v5__kvsat_diff}
+ steta0 = 0.0
+ tku0 = 0.0
.model sky130_fd_pr__nfet_g5v0d10v5__model.1 nmos
* DC IV MOS Parameters
+ lmin = 9.95e-07 lmax = 1.005e-06 wmin = 1.4995e-05 wmax = 1.5005e-5
+ level = 54.0
+ tnom = 30.0
+ version = 4.5
+ toxm = 1.16e-8
+ xj = 1.5e-7
+ lln = 1.0
+ lwn = 1.0
+ wln = 1.0
+ wwn = 1.0
+ lint = {7.6507e-008+sky130_fd_pr__nfet_g5v0d10v5__lint_diff}
+ ll = 0.0
+ lw = 0.0
+ lwl = 0.0
+ wint = {2.1346e-008+sky130_fd_pr__nfet_g5v0d10v5__wint_diff}
+ wl = 0.0
+ ww = 0.0
+ wwl = 0.0
+ xl = 0.0
+ xw = 0.0
+ mobmod = 0.0
+ binunit = 2.0
+ dwg = -4.1292e-9
+ dwb = -1.6944e-9
* BSIM4 - Model Selectors
+ igcmod = 0.0
+ igbmod = 0.0
+ rgatemod = 0.0
+ rbodymod = 1.0
+ trnqsmod = 0.0
+ acnqsmod = 0.0
+ fnoimod = 1.0
+ tnoimod = 1.0
+ permod = 1.0
+ geomod = 0.0
+ rdsmod = 0.0
+ tempmod = 0.0
+ lintnoi = 0.0
+ vfbsdoff = 0.0
+ lambda = 0.0
+ vtl = 0.0
+ lc = 5.0e-9
+ xn = 3.0
+ rnoia = 0.794
+ rnoib = 0.38
+ tnoia = 7.50e+6
+ tnoib = 7.2e+6
* BSIM4 - Process Parameters
+ epsrox = 3.9
+ toxe = {1.16e-008*sky130_fd_pr__nfet_g5v0d10v5__toxe_mult+sky130_fd_pr__nfet_g5v0d10v5__toxe_slope_spectre*(1.16e-08*sky130_fd_pr__nfet_g5v0d10v5__toxe_mult*(sky130_fd_pr__nfet_g5v0d10v5__toxe_slope/sqrt(l*w*mult)))}
+ dtox = 0.0
+ ndep = 1.7e+17
+ nsd = 1.0e+20
+ rshg = 0.1
+ rsh = {1*sky130_fd_pr__nfet_g5v0d10v5__rshn_mult}
* Threshold Voltage Parameters
+ vth0 = {0.83003+sky130_fd_pr__nfet_g5v0d10v5__vth0_diff_1+sky130_fd_pr__nfet_g5v0d10v5__vth0_slope_spectre*(sky130_fd_pr__nfet_g5v0d10v5__vth0_slope/sqrt(l*w*mult))}
+ k1 = 0.88325
+ k2 = {-0.029179+sky130_fd_pr__nfet_g5v0d10v5__k2_diff_1}
+ k3 = -0.884
+ dvt0 = 0.0
+ dvt1 = 0.53
+ dvt2 = -0.19251
+ dvt0w = 0.16
+ dvt1w = 6909100.0
+ dvt2w = -0.036016
+ w0 = 0.0
+ k3b = 0.43
* NEW BSIM4 Parameters for Level 54
+ phin = 0.0
+ lpe0 = 2.5e-8
+ lpeb = -2.182e-7
+ vbm = -3.0
+ dvtp0 = 0.0
+ dvtp1 = 0.0
* Mobility Parameters
+ vsat = {97207+sky130_fd_pr__nfet_g5v0d10v5__vsat_diff_1}
+ ua = {-1.498e-010+sky130_fd_pr__nfet_g5v0d10v5__ua_diff_1}
+ ub = {2.0388e-018+sky130_fd_pr__nfet_g5v0d10v5__ub_diff_1}
+ uc = 6.6204e-11
+ rdsw = {724.62+sky130_fd_pr__nfet_g5v0d10v5__rdsw_diff_1}
+ prwb = 0.05626
+ prwg = 0.048
+ wr = 1.0
+ u0 = {0.043206+sky130_fd_pr__nfet_g5v0d10v5__u0_diff_1}
+ a0 = {0.74065+sky130_fd_pr__nfet_g5v0d10v5__a0_diff_1}
+ keta = {-0.027168+sky130_fd_pr__nfet_g5v0d10v5__keta_diff_1}
+ a1 = 0.0
+ a2 = 0.65972622
+ ags = {0.16025+sky130_fd_pr__nfet_g5v0d10v5__ags_diff_1}
+ b0 = {3.2933e-008+sky130_fd_pr__nfet_g5v0d10v5__b0_diff_1}
+ b1 = {0+sky130_fd_pr__nfet_g5v0d10v5__b1_diff_1}
* BSIM4 - Mobility Parameters
+ eu = 1.67
+ rdswmin = 0.0
+ rdw = 0.0
+ rdwmin = 0.0
+ rsw = 0.0
+ rswmin = 0.0
* Subthreshold Current Parameters
+ voff = {-0.20613+sky130_fd_pr__nfet_g5v0d10v5__voff_diff_1+sky130_fd_pr__nfet_g5v0d10v5__voff_slope_spectre*(sky130_fd_pr__nfet_g5v0d10v5__voff_slope/sqrt(l*w*mult))}
+ nfactor = {0.5412+sky130_fd_pr__nfet_g5v0d10v5__nfactor_diff_1+sky130_fd_pr__nfet_g5v0d10v5__nfactor_slope_spectre*(sky130_fd_pr__nfet_g5v0d10v5__nfactor_slope/sqrt(l*w*mult))}
+ up = 0.0
+ ud = 0.0
+ lp = 1.0
+ tvfbsdoff = 0.0
+ tvoff = {0+sky130_fd_pr__nfet_g5v0d10v5__tvoff_diff_1}
+ cit = -0.0008
+ cdsc = 0.0
+ cdscb = 0.0
+ cdscd = 0.0
+ eta0 = {0.032+sky130_fd_pr__nfet_g5v0d10v5__eta0_diff_1}
+ etab = -0.01932
+ dsub = 0.504
* BSIM4 - Sub-threshold parameters
+ voffl = -4.2579486e-7
+ minv = 0.0
* Rout Parameters
+ pclm = {0.33405+sky130_fd_pr__nfet_g5v0d10v5__pclm_diff_1}
+ pdiblc1 = 0.21098
+ pdiblc2 = 0.0002
+ pdiblcb = -0.26831
+ drout = 0.36075
+ pscbe1 = 9.3731e+8
+ pscbe2 = 1.68e-6
+ pvag = 1.99
+ delta = 0.0246
+ alpha0 = 1.4467e-5
+ alpha1 = 0.0
+ beta0 = 32.525
* BSIM4 - Rout Parameters
+ fprout = 10.125
+ pdits = {0+sky130_fd_pr__nfet_g5v0d10v5__pdits_diff_1}
+ pditsl = 0.0
+ pditsd = {0+sky130_fd_pr__nfet_g5v0d10v5__pditsd_diff_1}
* BSIM4 - Gate Induced Drain Leakage Model Parameters
+ agidl = {5.06e-011+sky130_fd_pr__nfet_g5v0d10v5__agidl_diff_1}
+ bgidl = {1.058e009+sky130_fd_pr__nfet_g5v0d10v5__bgidl_diff_1}
+ cgidl = {4000+sky130_fd_pr__nfet_g5v0d10v5__cgidl_diff_1}
+ egidl = 0.8
* BSIM4 - Gate Leakage Current Parameters
+ aigbacc = 1.0
+ bigbacc = 0.0
+ cigbacc = 0.0
+ nigbacc = 1.0
+ aigbinv = 0.35
+ bigbinv = 0.03
+ cigbinv = 0.006
+ eigbinv = 1.1
+ nigbinv = 3.0
+ aigc = 0.43
+ bigc = 0.054
+ cigc = 0.075
+ nigc = 1.0
+ aigsd = 0.43
+ bigsd = 0.054
+ cigsd = 0.075
+ dlcig = 0.0
+ poxedge = 1.0
+ pigcd = 1.0
+ ntox = 1.0
+ toxref = 1.16e-8
* Temperature Effects Parameters
+ kt1 = {-0.36273+sky130_fd_pr__nfet_g5v0d10v5__kt1_diff_1}
+ kt2 = -0.019151
+ at = 24000.0
+ ute = -1.2986
+ ua1 = 3.0044e-9
+ ub1 = -3.4523e-18
+ uc1 = -5.9821e-11
+ kt1l = 0.0
+ prt = 0.0
* BSIM4 - High Speed RF Model Parameters
+ xrcrg1 = 12.0
+ xrcrg2 = 1.0
+ rbpb = 50.0
+ rbpd = 50.0
+ rbps = 50.0
+ rbdb = 50.0
+ rbsb = 50.0
+ gbmin = 1.0e-12
* BSIM4 - Flicker and Thermal Noise Parameters
+ noia = 2.6e+41
+ noib = 0.0
+ noic = 0.0
+ em = 4.1000000e+7
+ af = 1.0
+ ef = 0.89
+ kf = 0.0
+ ntnoi = 1.0
* BSIM4 - Layout Dependent Parasitic Model Parameters
+ dmcg = 0.0
+ dmcgt = 0.0
+ dmdg = 0.0
+ xgw = 0.0
+ xgl = 0.0
+ ngcon = 1.0
* Diode DC IV Parameters
* BSIM4 - Diode DC IV parameters
+ diomod = 1.0
+ njs = 1.0773
+ jss = 0.000375
+ jsws = 5.84e-11
+ xtis = 0.76
+ bvs = 12.636
+ xjbvs = 1.0
+ ijthsrev = 0.1
+ ijthsfwd = 0.1
* Diode and FET Capacitance Parameters
+ tpb = 0.001344
+ tpbsw = 0.00099005
+ tpbswg = 0.0
+ tcj = 0.00067434
+ tcjsw = 0.0002493
+ tcjswg = 0.0
+ cgdo = {3.0674e-010*sky130_fd_pr__nfet_g5v0d10v5__overlap_mult}
+ cgso = {3.0674e-010*sky130_fd_pr__nfet_g5v0d10v5__overlap_mult}
+ cgbo = 0.0
+ capmod = 2.0
+ xpart = 0.0
+ cgsl = {5e-011*sky130_fd_pr__nfet_g5v0d10v5__overlap_mult}
+ cgdl = {5e-011*sky130_fd_pr__nfet_g5v0d10v5__overlap_mult}
+ cf = 0.0
+ clc = 1.0e-7
+ cle = 0.6
+ dlc = {6.5995e-008+sky130_fd_pr__nfet_g5v0d10v5__dlc_diff+sky130_fd_pr__nfet_g5v0d10v5__dlc_rotweak}
+ dwc = {0+sky130_fd_pr__nfet_g5v0d10v5__dwc_diff}
+ vfbcv = -1.0
+ acde = 0.4176
+ moin = 15.0
+ noff = 4.0
+ voffcv = -0.4104
+ ngate = 1.0e+23
+ lwc = 0.0
+ llc = 0.0
+ lwlc = 0.0
+ wlc = 0.0
+ wwc = 0.0
+ wwlc = 0.0
* BSIM4 - FET and Diode capacitance parameters
+ ckappas = 0.6
+ cjs = {0.0008512*sky130_fd_pr__nfet_g5v0d10v5__ajunction_mult}
+ mjs = 0.295
+ pbs = 0.72468
+ cjsws = {8.5204e-011*sky130_fd_pr__nfet_g5v0d10v5__pjunction_mult}
+ mjsws = 0.037586
+ pbsws = 0.29067
+ cjswgs = {5.4e-011*sky130_fd_pr__nfet_g5v0d10v5__pjunction_mult}
+ mjswgs = 0.78692
+ pbswgs = 0.54958
* Stress Parameters
+ saref = 2.81e-6
+ sbref = 2.81e-6
+ wlod = {0+sky130_fd_pr__nfet_g5v0d10v5__wlod_diff}
+ kvth0 = {0+sky130_fd_pr__nfet_g5v0d10v5__kvth0_diff}
+ lkvth0 = {0+sky130_fd_pr__nfet_g5v0d10v5__lkvth0_diff}
+ wkvth0 = {0+sky130_fd_pr__nfet_g5v0d10v5__wkvth0_diff}
+ pkvth0 = 0.0
+ llodvth = 0.0
+ wlodvth = 1.0
+ stk2 = 0.0
+ lodk2 = 1.0
+ lodeta0 = 1.0
+ ku0 = {0+sky130_fd_pr__nfet_g5v0d10v5__ku0_diff}
+ lku0 = {0+sky130_fd_pr__nfet_g5v0d10v5__lku0_diff}
+ wku0 = {0+sky130_fd_pr__nfet_g5v0d10v5__wku0_diff}
+ pku0 = 0.0
+ llodku0 = 0.0
+ wlodku0 = 1.0
+ kvsat = {0+sky130_fd_pr__nfet_g5v0d10v5__kvsat_diff}
+ steta0 = 0.0
+ tku0 = 0.0
.model sky130_fd_pr__nfet_g5v0d10v5__model.2 nmos
* DC IV MOS Parameters
+ lmin = 4.95e-07 lmax = 5.05e-07 wmin = 1.4995e-05 wmax = 1.5005e-5
+ level = 54.0
+ tnom = 30.0
+ version = 4.5
+ toxm = 1.16e-8
+ xj = 1.5e-7
+ lln = 1.0
+ lwn = 1.0
+ wln = 1.0
+ wwn = 1.0
+ lint = {7.6507e-008+sky130_fd_pr__nfet_g5v0d10v5__lint_diff}
+ ll = 0.0
+ lw = 0.0
+ lwl = 0.0
+ wint = {2.1346e-008+sky130_fd_pr__nfet_g5v0d10v5__wint_diff}
+ wl = 0.0
+ ww = 0.0
+ wwl = 0.0
+ xl = 0.0
+ xw = 0.0
+ mobmod = 0.0
+ binunit = 2.0
+ dwg = -4.1292e-9
+ dwb = -1.6944e-9
* BSIM4 - Model Selectors
+ igcmod = 0.0
+ igbmod = 0.0
+ rgatemod = 0.0
+ rbodymod = 1.0
+ trnqsmod = 0.0
+ acnqsmod = 0.0
+ fnoimod = 1.0
+ tnoimod = 1.0
+ permod = 1.0
+ geomod = 0.0
+ rdsmod = 0.0
+ tempmod = 0.0
+ lintnoi = 0.0
+ vfbsdoff = 0.0
+ lambda = 0.0
+ vtl = 0.0
+ lc = 5.0e-9
+ xn = 3.0
+ rnoia = 0.794
+ rnoib = 0.38
+ tnoia = 7.50e+6
+ tnoib = 7.2e+6
* BSIM4 - Process Parameters
+ epsrox = 3.9
+ toxe = {1.16e-008*sky130_fd_pr__nfet_g5v0d10v5__toxe_mult+sky130_fd_pr__nfet_g5v0d10v5__toxe_slope_spectre*(1.16e-08*sky130_fd_pr__nfet_g5v0d10v5__toxe_mult*(sky130_fd_pr__nfet_g5v0d10v5__toxe_slope1/sqrt(l*w*mult)))}
+ dtox = 0.0
+ ndep = 1.7e+17
+ nsd = 1.0e+20
+ rshg = 0.1
+ rsh = {1*sky130_fd_pr__nfet_g5v0d10v5__rshn_mult}
* Threshold Voltage Parameters
+ vth0 = {0.83003+sky130_fd_pr__nfet_g5v0d10v5__vth0_diff_2+sky130_fd_pr__nfet_g5v0d10v5__vth0_slope_spectre*(sky130_fd_pr__nfet_g5v0d10v5__vth0_slope/sqrt(l*w*mult))}
+ k1 = 0.88325
+ k2 = {-0.029179+sky130_fd_pr__nfet_g5v0d10v5__k2_diff_2}
+ k3 = -0.884
+ dvt0 = 0.0
+ dvt1 = 0.53
+ dvt2 = -0.19251
+ dvt0w = 0.16
+ dvt1w = 6909100.0
+ dvt2w = -0.036016
+ w0 = 0.0
+ k3b = 0.43
* NEW BSIM4 Parameters for Level 54
+ phin = 0.0
+ lpe0 = 2.5e-8
+ lpeb = -2.182e-7
+ vbm = -3.0
+ dvtp0 = 0.0
+ dvtp1 = 0.0
* Mobility Parameters
+ vsat = {105660+sky130_fd_pr__nfet_g5v0d10v5__vsat_diff_2}
+ ua = {-1.498e-010+sky130_fd_pr__nfet_g5v0d10v5__ua_diff_2}
+ ub = {2.1238e-018+sky130_fd_pr__nfet_g5v0d10v5__ub_diff_2}
+ uc = 6.6204e-11
+ rdsw = {724.62+sky130_fd_pr__nfet_g5v0d10v5__rdsw_diff_2}
+ prwb = 0.05626
+ prwg = 0.048
+ wr = 1.0
+ u0 = {0.044006+sky130_fd_pr__nfet_g5v0d10v5__u0_diff_2}
+ a0 = {1.1222+sky130_fd_pr__nfet_g5v0d10v5__a0_diff_2}
+ keta = {-0.01066+sky130_fd_pr__nfet_g5v0d10v5__keta_diff_2}
+ a1 = 0.0
+ a2 = 0.65972622
+ ags = {0.16025+sky130_fd_pr__nfet_g5v0d10v5__ags_diff_2}
+ b0 = {3.2933e-008+sky130_fd_pr__nfet_g5v0d10v5__b0_diff_2}
+ b1 = {0+sky130_fd_pr__nfet_g5v0d10v5__b1_diff_2}
* BSIM4 - Mobility Parameters
+ eu = 1.67
+ rdswmin = 0.0
+ rdw = 0.0
+ rdwmin = 0.0
+ rsw = 0.0
+ rswmin = 0.0
* Subthreshold Current Parameters
+ voff = {-0.20613+sky130_fd_pr__nfet_g5v0d10v5__voff_diff_2+sky130_fd_pr__nfet_g5v0d10v5__voff_slope_spectre*(sky130_fd_pr__nfet_g5v0d10v5__voff_slope/sqrt(l*w*mult))}
+ nfactor = {0.5412+sky130_fd_pr__nfet_g5v0d10v5__nfactor_diff_2+sky130_fd_pr__nfet_g5v0d10v5__nfactor_slope_spectre*(sky130_fd_pr__nfet_g5v0d10v5__nfactor_slope/sqrt(l*w*mult))}
+ up = 0.0
+ ud = 0.0
+ lp = 1.0
+ tvfbsdoff = 0.0
+ tvoff = {0+sky130_fd_pr__nfet_g5v0d10v5__tvoff_diff_2}
+ cit = -0.0008
+ cdsc = 0.0
+ cdscb = 0.0
+ cdscd = 0.0
+ eta0 = {0.032+sky130_fd_pr__nfet_g5v0d10v5__eta0_diff_2}
+ etab = -0.01932
+ dsub = 0.504
* BSIM4 - Sub-threshold parameters
+ voffl = -4.2579486e-7
+ minv = 0.0
* Rout Parameters
+ pclm = {1.0792+sky130_fd_pr__nfet_g5v0d10v5__pclm_diff_2}
+ pdiblc1 = 0.21098
+ pdiblc2 = 0.0002
+ pdiblcb = -0.26831
+ drout = 0.36075
+ pscbe1 = 9.3731e+8
+ pscbe2 = 1.68e-6
+ pvag = 1.99
+ delta = 0.0246
+ alpha0 = 1.4467e-5
+ alpha1 = 0.0
+ beta0 = 36.96
* BSIM4 - Rout Parameters
+ fprout = 10.125
+ pdits = {0+sky130_fd_pr__nfet_g5v0d10v5__pdits_diff_2}
+ pditsl = 0.0
+ pditsd = {0+sky130_fd_pr__nfet_g5v0d10v5__pditsd_diff_2}
* BSIM4 - Gate Induced Drain Leakage Model Parameters
+ agidl = {5.06e-011+sky130_fd_pr__nfet_g5v0d10v5__agidl_diff_2}
+ bgidl = {1.058e009+sky130_fd_pr__nfet_g5v0d10v5__bgidl_diff_2}
+ cgidl = {4000+sky130_fd_pr__nfet_g5v0d10v5__cgidl_diff_2}
+ egidl = 0.8
* BSIM4 - Gate Leakage Current Parameters
+ aigbacc = 1.0
+ bigbacc = 0.0
+ cigbacc = 0.0
+ nigbacc = 1.0
+ aigbinv = 0.35
+ bigbinv = 0.03
+ cigbinv = 0.006
+ eigbinv = 1.1
+ nigbinv = 3.0
+ aigc = 0.43
+ bigc = 0.054
+ cigc = 0.075
+ nigc = 1.0
+ aigsd = 0.43
+ bigsd = 0.054
+ cigsd = 0.075
+ dlcig = 0.0
+ poxedge = 1.0
+ pigcd = 1.0
+ ntox = 1.0
+ toxref = 1.16e-8
* Temperature Effects Parameters
+ kt1 = {-0.35073+sky130_fd_pr__nfet_g5v0d10v5__kt1_diff_2}
+ kt2 = -0.019151
+ at = 41664.0
+ ute = -1.2986
+ ua1 = 3.0044e-9
+ ub1 = -3.7525e-18
+ uc1 = -5.9821e-11
+ kt1l = 0.0
+ prt = 0.0
* BSIM4 - High Speed RF Model Parameters
+ xrcrg1 = 12.0
+ xrcrg2 = 1.0
+ rbpb = 50.0
+ rbpd = 50.0
+ rbps = 50.0
+ rbdb = 50.0
+ rbsb = 50.0
+ gbmin = 1.0e-12
* BSIM4 - Flicker and Thermal Noise Parameters
+ noia = 2.6e+41
+ noib = 0.0
+ noic = 0.0
+ em = 4.1000000e+7
+ af = 1.0
+ ef = 0.89
+ kf = 0.0
+ ntnoi = 1.0
* BSIM4 - Layout Dependent Parasitic Model Parameters
+ dmcg = 0.0
+ dmcgt = 0.0
+ dmdg = 0.0
+ xgw = 0.0
+ xgl = 0.0
+ ngcon = 1.0
* Diode DC IV Parameters
* BSIM4 - Diode DC IV parameters
+ diomod = 1.0
+ njs = 1.0773
+ jss = 0.000375
+ jsws = 5.84e-11
+ xtis = 0.76
+ bvs = 12.636
+ xjbvs = 1.0
+ ijthsrev = 0.1
+ ijthsfwd = 0.1
* Diode and FET Capacitance Parameters
+ tpb = 0.001344
+ tpbsw = 0.00099005
+ tpbswg = 0.0
+ tcj = 0.00067434
+ tcjsw = 0.0002493
+ tcjswg = 0.0
+ cgdo = {3.0674e-010*sky130_fd_pr__nfet_g5v0d10v5__overlap_mult}
+ cgso = {3.0674e-010*sky130_fd_pr__nfet_g5v0d10v5__overlap_mult}
+ cgbo = 0.0
+ capmod = 2.0
+ xpart = 0.0
+ cgsl = {5e-011*sky130_fd_pr__nfet_g5v0d10v5__overlap_mult}
+ cgdl = {5e-011*sky130_fd_pr__nfet_g5v0d10v5__overlap_mult}
+ cf = 0.0
+ clc = 1.0e-7
+ cle = 0.6
+ dlc = {6.5995e-008+sky130_fd_pr__nfet_g5v0d10v5__dlc_diff+sky130_fd_pr__nfet_g5v0d10v5__dlc_rotweak}
+ dwc = {0+sky130_fd_pr__nfet_g5v0d10v5__dwc_diff}
+ vfbcv = -1.0
+ acde = 0.4176
+ moin = 15.0
+ noff = 4.0
+ voffcv = -0.4104
+ ngate = 1.0e+23
+ lwc = 0.0
+ llc = 0.0
+ lwlc = 0.0
+ wlc = 0.0
+ wwc = 0.0
+ wwlc = 0.0
* BSIM4 - FET and Diode capacitance parameters
+ ckappas = 0.6
+ cjs = {0.0008512*sky130_fd_pr__nfet_g5v0d10v5__ajunction_mult}
+ mjs = 0.295
+ pbs = 0.72468
+ cjsws = {8.5204e-011*sky130_fd_pr__nfet_g5v0d10v5__pjunction_mult}
+ mjsws = 0.037586
+ pbsws = 0.29067
+ cjswgs = {5.4e-011*sky130_fd_pr__nfet_g5v0d10v5__pjunction_mult}
+ mjswgs = 0.78692
+ pbswgs = 0.54958
* Stress Parameters
+ saref = 1.81e-6
+ sbref = 1.81e-6
+ wlod = {0+sky130_fd_pr__nfet_g5v0d10v5__wlod_diff}
+ kvth0 = {0+sky130_fd_pr__nfet_g5v0d10v5__kvth0_diff}
+ lkvth0 = {0+sky130_fd_pr__nfet_g5v0d10v5__lkvth0_diff}
+ wkvth0 = {0+sky130_fd_pr__nfet_g5v0d10v5__wkvth0_diff}
+ pkvth0 = 0.0
+ llodvth = 0.0
+ wlodvth = 1.0
+ stk2 = 0.0
+ lodk2 = 1.0
+ lodeta0 = 1.0
+ ku0 = {0+sky130_fd_pr__nfet_g5v0d10v5__ku0_diff}
+ lku0 = {0+sky130_fd_pr__nfet_g5v0d10v5__lku0_diff}
+ wku0 = {0+sky130_fd_pr__nfet_g5v0d10v5__wku0_diff}
+ pku0 = 0.0
+ llodku0 = 0.0
+ wlodku0 = 1.0
+ kvsat = {0+sky130_fd_pr__nfet_g5v0d10v5__kvsat_diff}
+ steta0 = 0.0
+ tku0 = 0.0
.model sky130_fd_pr__nfet_g5v0d10v5__model.3 nmos
* DC IV MOS Parameters
+ lmin = 9.95e-07 lmax = 1.005e-06 wmin = 1.495e-06 wmax = 1.505e-6
+ level = 54.0
+ tnom = 30.0
+ version = 4.5
+ toxm = 1.16e-8
+ xj = 1.5e-7
+ lln = 1.0
+ lwn = 1.0
+ wln = 1.0
+ wwn = 1.0
+ lint = {7.6507e-008+sky130_fd_pr__nfet_g5v0d10v5__lint_diff}
+ ll = 0.0
+ lw = 0.0
+ lwl = 0.0
+ wint = {2.1346e-008+sky130_fd_pr__nfet_g5v0d10v5__wint_diff}
+ wl = 0.0
+ ww = 0.0
+ wwl = 0.0
+ xl = 0.0
+ xw = 0.0
+ mobmod = 0.0
+ binunit = 2.0
+ dwg = -4.1292e-9
+ dwb = -1.6944e-9
* BSIM4 - Model Selectors
+ igcmod = 0.0
+ igbmod = 0.0
+ rgatemod = 0.0
+ rbodymod = 1.0
+ trnqsmod = 0.0
+ acnqsmod = 0.0
+ fnoimod = 1.0
+ tnoimod = 1.0
+ permod = 1.0
+ geomod = 0.0
+ rdsmod = 0.0
+ tempmod = 0.0
+ lintnoi = 0.0
+ vfbsdoff = 0.0
+ lambda = 0.0
+ vtl = 0.0
+ lc = 5.0e-9
+ xn = 3.0
+ rnoia = 0.794
+ rnoib = 0.38
+ tnoia = 7.50e+6
+ tnoib = 7.2e+6
* BSIM4 - Process Parameters
+ epsrox = 3.9
+ toxe = {1.16e-008*sky130_fd_pr__nfet_g5v0d10v5__toxe_mult+sky130_fd_pr__nfet_g5v0d10v5__toxe_slope_spectre*(1.16e-08*sky130_fd_pr__nfet_g5v0d10v5__toxe_mult*(sky130_fd_pr__nfet_g5v0d10v5__toxe_slope/sqrt(l*w*mult)))}
+ dtox = 0.0
+ ndep = 1.7e+17
+ nsd = 1.0e+20
+ rshg = 0.1
+ rsh = {1*sky130_fd_pr__nfet_g5v0d10v5__rshn_mult}
* Threshold Voltage Parameters
+ vth0 = {0.85907+sky130_fd_pr__nfet_g5v0d10v5__vth0_diff_3+sky130_fd_pr__nfet_g5v0d10v5__vth0_slope_spectre*(sky130_fd_pr__nfet_g5v0d10v5__vth0_slope/sqrt(l*w*mult))}
+ k1 = 0.88325
+ k2 = {-0.019258+sky130_fd_pr__nfet_g5v0d10v5__k2_diff_3}
+ k3 = -0.884
+ dvt0 = 0.0
+ dvt1 = 0.53
+ dvt2 = -0.19251
+ dvt0w = 0.16
+ dvt1w = 6909100.0
+ dvt2w = -0.036016
+ w0 = 0.0
+ k3b = 0.43
* NEW BSIM4 Parameters for Level 54
+ phin = 0.0
+ lpe0 = 2.5e-8
+ lpeb = -2.182e-7
+ vbm = -3.0
+ dvtp0 = 0.0
+ dvtp1 = 0.0
* Mobility Parameters
+ vsat = {103150+sky130_fd_pr__nfet_g5v0d10v5__vsat_diff_3}
+ ua = {-1.498e-010+sky130_fd_pr__nfet_g5v0d10v5__ua_diff_3}
+ ub = {1.8265e-018+sky130_fd_pr__nfet_g5v0d10v5__ub_diff_3}
+ uc = 6.6204e-11
+ rdsw = {724.62+sky130_fd_pr__nfet_g5v0d10v5__rdsw_diff_3}
+ prwb = 0.05626
+ prwg = 0.048
+ wr = 1.0
+ u0 = {0.043206+sky130_fd_pr__nfet_g5v0d10v5__u0_diff_3}
+ a0 = {1.1222+sky130_fd_pr__nfet_g5v0d10v5__a0_diff_3}
+ keta = {-0.01066+sky130_fd_pr__nfet_g5v0d10v5__keta_diff_3}
+ a1 = 0.0
+ a2 = 0.65972622
+ ags = {0.16025+sky130_fd_pr__nfet_g5v0d10v5__ags_diff_3}
+ b0 = {3.2933e-008+sky130_fd_pr__nfet_g5v0d10v5__b0_diff_3}
+ b1 = {0+sky130_fd_pr__nfet_g5v0d10v5__b1_diff_3}
* BSIM4 - Mobility Parameters
+ eu = 1.67
+ rdswmin = 0.0
+ rdw = 0.0
+ rdwmin = 0.0
+ rsw = 0.0
+ rswmin = 0.0
* Subthreshold Current Parameters
+ voff = {-0.20613+sky130_fd_pr__nfet_g5v0d10v5__voff_diff_3+sky130_fd_pr__nfet_g5v0d10v5__voff_slope_spectre*(sky130_fd_pr__nfet_g5v0d10v5__voff_slope/sqrt(l*w*mult))}
+ nfactor = {0.5412+sky130_fd_pr__nfet_g5v0d10v5__nfactor_diff_3+sky130_fd_pr__nfet_g5v0d10v5__nfactor_slope_spectre*(sky130_fd_pr__nfet_g5v0d10v5__nfactor_slope/sqrt(l*w*mult))}
+ up = 0.0
+ ud = 0.0
+ lp = 1.0
+ tvfbsdoff = 0.0
+ tvoff = {0+sky130_fd_pr__nfet_g5v0d10v5__tvoff_diff_3}
+ cit = -0.0008
+ cdsc = 0.0
+ cdscb = 0.0
+ cdscd = 0.0
+ eta0 = {0.032+sky130_fd_pr__nfet_g5v0d10v5__eta0_diff_3}
+ etab = -0.01932
+ dsub = 0.504
* BSIM4 - Sub-threshold parameters
+ voffl = -4.2579486e-7
+ minv = 0.0
* Rout Parameters
+ pclm = {1.1563+sky130_fd_pr__nfet_g5v0d10v5__pclm_diff_3}
+ pdiblc1 = 0.21098
+ pdiblc2 = 0.0002
+ pdiblcb = -0.26831
+ drout = 0.36075
+ pscbe1 = 9.3731e+8
+ pscbe2 = 1.68e-6
+ pvag = 1.99
+ delta = 0.0246
+ alpha0 = 2.7777e-5
+ alpha1 = 0.0
+ beta0 = 35.482
* BSIM4 - Rout Parameters
+ fprout = 10.125
+ pdits = {0+sky130_fd_pr__nfet_g5v0d10v5__pdits_diff_3}
+ pditsl = 0.0
+ pditsd = {0+sky130_fd_pr__nfet_g5v0d10v5__pditsd_diff_3}
* BSIM4 - Gate Induced Drain Leakage Model Parameters
+ agidl = {5.06e-011+sky130_fd_pr__nfet_g5v0d10v5__agidl_diff_3}
+ bgidl = {1.058e009+sky130_fd_pr__nfet_g5v0d10v5__bgidl_diff_3}
+ cgidl = {4000+sky130_fd_pr__nfet_g5v0d10v5__cgidl_diff_3}
+ egidl = 0.8
* BSIM4 - Gate Leakage Current Parameters
+ aigbacc = 1.0
+ bigbacc = 0.0
+ cigbacc = 0.0
+ nigbacc = 1.0
+ aigbinv = 0.35
+ bigbinv = 0.03
+ cigbinv = 0.006
+ eigbinv = 1.1
+ nigbinv = 3.0
+ aigc = 0.43
+ bigc = 0.054
+ cigc = 0.075
+ nigc = 1.0
+ aigsd = 0.43
+ bigsd = 0.054
+ cigsd = 0.075
+ dlcig = 0.0
+ poxedge = 1.0
+ pigcd = 1.0
+ ntox = 1.0
+ toxref = 1.16e-8
* Temperature Effects Parameters
+ kt1 = {-0.37273+sky130_fd_pr__nfet_g5v0d10v5__kt1_diff_3}
+ kt2 = -0.019151
+ at = 24000.0
+ ute = -1.2986
+ ua1 = 3.0044e-9
+ ub1 = -3.7525e-18
+ uc1 = -5.9821e-11
+ kt1l = 0.0
+ prt = 0.0
* BSIM4 - High Speed RF Model Parameters
+ xrcrg1 = 12.0
+ xrcrg2 = 1.0
+ rbpb = 50.0
+ rbpd = 50.0
+ rbps = 50.0
+ rbdb = 50.0
+ rbsb = 50.0
+ gbmin = 1.0e-12
* BSIM4 - Flicker and Thermal Noise Parameters
+ noia = 2.6e+41
+ noib = 0.0
+ noic = 0.0
+ em = 4.1000000e+7
+ af = 1.0
+ ef = 0.89
+ kf = 0.0
+ ntnoi = 1.0
* BSIM4 - Layout Dependent Parasitic Model Parameters
+ dmcg = 0.0
+ dmcgt = 0.0
+ dmdg = 0.0
+ xgw = 0.0
+ xgl = 0.0
+ ngcon = 1.0
* Diode DC IV Parameters
* BSIM4 - Diode DC IV parameters
+ diomod = 1.0
+ njs = 1.0773
+ jss = 0.000375
+ jsws = 5.84e-11
+ xtis = 0.76
+ bvs = 12.636
+ xjbvs = 1.0
+ ijthsrev = 0.1
+ ijthsfwd = 0.1
* Diode and FET Capacitance Parameters
+ tpb = 0.001344
+ tpbsw = 0.00099005
+ tpbswg = 0.0
+ tcj = 0.00067434
+ tcjsw = 0.0002493
+ tcjswg = 0.0
+ cgdo = {3.0674e-010*sky130_fd_pr__nfet_g5v0d10v5__overlap_mult}
+ cgso = {3.0674e-010*sky130_fd_pr__nfet_g5v0d10v5__overlap_mult}
+ cgbo = 0.0
+ capmod = 2.0
+ xpart = 0.0
+ cgsl = {5e-011*sky130_fd_pr__nfet_g5v0d10v5__overlap_mult}
+ cgdl = {5e-011*sky130_fd_pr__nfet_g5v0d10v5__overlap_mult}
+ cf = 0.0
+ clc = 1.0e-7
+ cle = 0.6
+ dlc = {6.5995e-008+sky130_fd_pr__nfet_g5v0d10v5__dlc_diff+sky130_fd_pr__nfet_g5v0d10v5__dlc_rotweak}
+ dwc = {0+sky130_fd_pr__nfet_g5v0d10v5__dwc_diff}
+ vfbcv = -1.0
+ acde = 0.4176
+ moin = 15.0
+ noff = 4.0
+ voffcv = -0.4104
+ ngate = 1.0e+23
+ lwc = 0.0
+ llc = 0.0
+ lwlc = 0.0
+ wlc = 0.0
+ wwc = 0.0
+ wwlc = 0.0
* BSIM4 - FET and Diode capacitance parameters
+ ckappas = 0.6
+ cjs = {0.0008512*sky130_fd_pr__nfet_g5v0d10v5__ajunction_mult}
+ mjs = 0.295
+ pbs = 0.72468
+ cjsws = {8.5204e-011*sky130_fd_pr__nfet_g5v0d10v5__pjunction_mult}
+ mjsws = 0.037586
+ pbsws = 0.29067
+ cjswgs = {5.4e-011*sky130_fd_pr__nfet_g5v0d10v5__pjunction_mult}
+ mjswgs = 0.78692
+ pbswgs = 0.54958
* Stress Parameters
+ saref = 2.81e-6
+ sbref = 2.81e-6
+ wlod = {0+sky130_fd_pr__nfet_g5v0d10v5__wlod_diff}
+ kvth0 = {0+sky130_fd_pr__nfet_g5v0d10v5__kvth0_diff}
+ lkvth0 = {0+sky130_fd_pr__nfet_g5v0d10v5__lkvth0_diff}
+ wkvth0 = {0+sky130_fd_pr__nfet_g5v0d10v5__wkvth0_diff}
+ pkvth0 = 0.0
+ llodvth = 0.0
+ wlodvth = 1.0
+ stk2 = 0.0
+ lodk2 = 1.0
+ lodeta0 = 1.0
+ ku0 = {0+sky130_fd_pr__nfet_g5v0d10v5__ku0_diff}
+ lku0 = {0+sky130_fd_pr__nfet_g5v0d10v5__lku0_diff}