* Copyright 2020 The SkyWater PDK Authors
*
* Licensed under the Apache License, Version 2.0 (the "License");
* you may not use this file except in compliance with the License.
* You may obtain a copy of the License at
*
*     https://www.apache.org/licenses/LICENSE-2.0
*
* Unless required by applicable law or agreed to in writing, software
* distributed under the License is distributed on an "AS IS" BASIS,
* WITHOUT WARRANTIES OR CONDITIONS OF ANY KIND, either express or implied.
* See the License for the specific language governing permissions and
* limitations under the License.

* SKY130 Spice File.
.param sky130_fd_pr__pfet_01v8_hvt__toxe_slope_spectre = 0.0
.param sky130_fd_pr__pfet_01v8_hvt__vth0_slope_spectre = 0.0
.param sky130_fd_pr__pfet_01v8_hvt__voff_slope_spectre = 0.0
.param sky130_fd_pr__pfet_01v8_hvt__nfactor_slope_spectre = 0.0
* statistics {
*   process {
*   }
*   mismatch {
*     vary sky130_fd_pr__pfet_01v8_hvt__toxe_slope_spectre dist=gauss std = 1.0
*     vary sky130_fd_pr__pfet_01v8_hvt__vth0_slope_spectre dist=gauss std = 1.0
*     vary sky130_fd_pr__pfet_01v8_hvt__voff_slope_spectre dist=gauss std = 1.0
*     vary sky130_fd_pr__pfet_01v8_hvt__nfactor_slope_spectre dist=gauss std = 1.0
*   }
* }
.subckt  sky130_fd_pr__pfet_01v8_hvt d g s b
+ 
.param  l = 1 w = 1 ad = 0 as = 0 pd = 0 ps = 0 nrd = 0 nrs = 0 sa = 0 sb = 0 sd = 0 mult = 1 nf = 1.0
msky130_fd_pr__pfet_01v8_hvt d g s b sky130_fd_pr__pfet_01v8_hvt__model l = {l} w = {w} ad = {ad} as = {as} pd = {pd} ps = {ps} nrd = {nrd} nrs = {nrs} sa = {sa} sb = {sb} sd = {sd} nf = {nf}
.model sky130_fd_pr__pfet_01v8_hvt__model.0 pmos
* Model Flag Parameters
+ lmin = 2.0e-05 lmax = 0.0001 wmin = 7.0e-06 wmax = 0.0001
+ level = 54.0
+ version = 4.5
+ binunit = 2.0
+ mobmod = 0.0
+ capmod = 2.0
+ igcmod = 0.0
+ igbmod = 0.0
+ geomod = 0.0
+ diomod = 1.0
+ rdsmod = 0.0
+ rbodymod = 1.0
+ rgatemod = 0.0
+ permod = 1.0
+ acnqsmod = 0.0
+ trnqsmod = 0.0
+ fnoimod = 1.0
+ tnoimod = 1.0
+ tempmod = 0.0
* Process Parameters
+ toxe = {4.44996e-09+sky130_fd_pr__pfet_01v8_hvt__toxe_slope_spectre*(4.23e-09*1.052*(sky130_fd_pr__pfet_01v8_hvt__toxe_slope/sqrt(l*w*mult)))}
+ toxm = 4.23e-9
+ dtox = 0.0
+ epsrox = 3.9
+ xj = 1.5e-7
+ ngate = 1.0e+23
+ ndep = 1.7e+17
+ nsd = 1.0e+20
+ rsh = 1.0
+ rshg = 0.1
* Basic Model Parameters
+ wint = 4.1539e-8
+ lint = -2.9085e-8
+ vth0 = {-1.116496+sky130_fd_pr__pfet_01v8_hvt__vth0_slope_spectre*(sky130_fd_pr__pfet_01v8_hvt__vth0_slope/sqrt(l*w*mult))}
+ k1 = 0.43657182
+ k2 = 0.035761468
+ k3 = -13.778
+ k3b = 2.0
+ w0 = 0.0
+ dvt0 = 4.05
+ dvt1 = 0.3
+ dvt2 = 0.03
+ dvt0w = -4.254
+ dvt1w = 1147200.0
+ dvt2w = -0.00896
+ dsub = 0.56
+ minv = 0.0
+ voffl = 0.0
+ lpe0 = 0.0
+ lpeb = 0.0
+ vbm = -3.0
+ dvtp0 = 0.0
+ dvtp1 = 0.0
+ phin = 0.0
+ cdsc = 0.0
+ cdscb = 0.0
+ cdscd = 0.0
+ cit = 1.0e-5
+ voff = {-0.16745888+sky130_fd_pr__pfet_01v8_hvt__voff_slope_spectre*(sky130_fd_pr__pfet_01v8_hvt__voff_slope/sqrt(l*w*mult))}
+ nfactor = {1.6448576+sky130_fd_pr__pfet_01v8_hvt__nfactor_slope_spectre*(sky130_fd_pr__pfet_01v8_hvt__nfactor_slope/sqrt(l*w*mult))}
+ eta0 = 0.08
+ etab = -0.07
+ u0 = 0.010851298
+ ua = 8.105303e-11
+ ub = 1.2961173e-19
+ uc = -7.7670696e-11
+ ud = 0.0
+ up = 0.0
+ lp = 1.0
+ eu = 1.67
+ vtl = 0.0
+ xn = 3.0
+ vsat = 200000.0
+ a0 = 1.5
+ ags = 0.3831138
+ a1 = 0.0
+ a2 = 1.0
+ b0 = 0.0
+ b1 = 0.0
+ keta = -0.013169082
+ dwg = -5.722e-9
+ dwb = -1.7864e-8
+ pclm = 0.075489662
+ pdiblc1 = 0.39
+ pdiblc2 = 0.0036275994
+ pdiblcb = -9.5744039e-5
+ drout = 0.56
+ pscbe1 = 746475130.0
+ pscbe2 = 9.5049925e-9
+ pvag = 0.0
+ delta = 0.01
+ fprout = 0.0
+ pdits = 0.0
+ pditsl = 0.0
+ pditsd = 0.0
+ lambda = 0.0
+ lc = 5.0e-9
* Parameters FOR Asymmetric AND Bias-Dependent RDS Model
+ rdsw = 531.92
+ rsw = 0.0
+ rdw = 0.0
+ rdswmin = 0.0
+ rdwmin = 0.0
+ rswmin = 0.0
+ prwb = -0.32348
+ prwg = 0.02
+ wr = 1.0
* Impact Ionization Current Model Parameters
+ alpha0 = 1.0e-10
+ alpha1 = 1.0e-10
+ beta0 = 4.7923891
* Gidl Induced Drain Leakage Model Parameters
+ agidl = 1.0e-10
+ bgidl = 1154444600.0
+ cgidl = 300.0
+ egidl = 0.1
* Gate Dielectric Tunneling Current Model Parameters
+ toxref = 4.23e-9
+ dlcig = 0.0
+ aigbacc = 0.43
+ bigbacc = 0.054
+ cigbacc = 0.075
+ nigbacc = 1.0
+ aigbinv = 0.35
+ bigbinv = 0.03
+ cigbinv = 0.006
+ eigbinv = 1.1
+ nigbinv = 3.0
+ aigc = 0.43
+ bigc = 0.054
+ cigc = 0.075
+ aigsd = 0.43
+ bigsd = 0.054
+ cigsd = 0.075
+ nigc = 1.0
+ poxedge = 1.0
+ pigcd = 1.0
+ ntox = 1.0
+ vfbsdoff = 0.0
* Charge AND Capacitance Model Parameters
+ dlc = -1.9885e-8
+ dwc = 3.2175e-8
+ xpart = 0.0
+ cgso = 7.2e-11
+ cgdo = 7.2e-11
+ cgbo = 0.0
+ cgdl = 9.12e-12
+ cgsl = 9.12e-12
+ clc = 1.0e-7
+ cle = 0.6
+ cf = 1.2e-11
+ ckappas = 0.6
+ vfbcv = -0.1446893
+ acde = 0.552
+ moin = 14.504
+ noff = 4.0
+ voffcv = -0.1375
* High-Speed/RF Model Parameters
+ xrcrg1 = 12.0
+ xrcrg2 = 1.0
+ rbpb = 50.0
+ rbpd = 50.0
+ rbps = 50.0
+ rbdb = 50.0
+ rbsb = 50.0
+ gbmin = 1.0e-12
* Flicker AND Thermal Noise Model Parameters
+ ef = 0.88
+ noia = 1.2e+41
+ noib = 2.0e+25
+ noic = 0.0
+ em = 41000000.0
+ ntnoi = 1.0
+ lintnoi = -6.0e-8
+ af = 1.0
+ kf = 0.0
+ tnoia = 1.5
+ tnoib = 3.5
+ rnoia = 0.577
+ rnoib = 0.37
* Layout-Dependent Parasitics Model Parameters
+ xl = 0.0
+ xw = 0.0
+ dmcg = 0.0
+ dmdg = 0.0
+ dmcgt = 0.0
+ xgw = 0.0
+ xgl = 0.0
+ ngcon = 1.0
* Asymmetric Source/Drain Junction Diode Model Parameters
+ jss = 2.17e-5
+ jsws = 8.2e-10
+ ijthsfwd = 0.1
+ ijthsrev = 0.1
+ bvs = 12.8
+ xjbvs = 1.0
+ pbs = 0.6587
+ cjs = 0.000813867531
+ mjs = 0.34629
+ pbsws = 0.7418
+ cjsws = 1.041095405e-10
+ mjsws = 0.26859
+ pbswgs = 1.3925
+ cjswgs = 2.78207363e-10
+ mjswgs = 0.70393
* Temperature Dependence Parameters
+ tnom = 30.0
+ kt1 = -0.44169
+ kt2 = -0.037961
+ at = 0.0
+ ute = -0.30066
+ ua1 = 2.2116e-9
+ ub1 = -7.9359e-19
+ uc1 = 1.1985e-10
+ kt1l = 0.0
+ prt = 0.0
+ tvoff = 0.0
+ njs = 1.2556
+ tpb = 0.0019551
+ tcj = 0.0012407
+ tpbsw = 0.00014242
+ tcjsw = 0.0
+ tpbswg = 0.0
+ tcjswg = 2.0e-12
+ xtis = 2.0
+ tvfbsdoff = 0.0
* DW AND DL Parameters
+ ll = 0.0
+ wl = 0.0
+ lln = 1.0
+ wln = 1.0
+ lw = 0.0
+ ww = 0.0
+ lwn = 1.0
+ wwn = 1.0
+ lwl = 0.0
+ wwl = 0.0
+ llc = 0.0
+ wlc = 0.0
+ lwc = 0.0
+ wwc = 0.0
+ lwlc = 0.0
+ wwlc = 0.0
* Stress Parameters
+ saref = 3.0e-6
+ sbref = 3.0e-6
+ kvth0 = 2.65e-8
+ lkvth0 = 0.0
+ wkvth0 = 2.5e-7
+ pkvth0 = 0.0
+ llodvth = 0.0
+ wlodvth = 1.0
+ wlod = 0.0
+ stk2 = 0.0
+ lodk2 = 1.0
+ lodeta0 = 1.0
+ ku0 = 4.5e-8
+ lku0 = 0.0
+ wku0 = 2.5e-7
+ pku0 = 0.0
+ tku0 = 0.0
+ llodku0 = 0.0
+ wlodku0 = 1.0
+ kvsat = 0.4
+ steta0 = 0.0
* Well Proximity Effect Parameters
.model sky130_fd_pr__pfet_01v8_hvt__model.1 pmos
* Model Flag Parameters
+ lmin = 8.0e-06 lmax = 2.0e-05 wmin = 7.0e-06 wmax = 0.0001
+ level = 54.0
+ version = 4.5
+ binunit = 2.0
+ mobmod = 0.0
+ capmod = 2.0
+ igcmod = 0.0
+ igbmod = 0.0
+ geomod = 0.0
+ diomod = 1.0
+ rdsmod = 0.0
+ rbodymod = 1.0
+ rgatemod = 0.0
+ permod = 1.0
+ acnqsmod = 0.0
+ trnqsmod = 0.0
+ fnoimod = 1.0
+ tnoimod = 1.0
+ tempmod = 0.0
* Process Parameters
+ toxe = {4.44996e-09+sky130_fd_pr__pfet_01v8_hvt__toxe_slope_spectre*(4.23e-09*1.052*(sky130_fd_pr__pfet_01v8_hvt__toxe_slope/sqrt(l*w*mult)))}
+ toxm = 4.23e-9
+ dtox = 0.0
+ epsrox = 3.9
+ xj = 1.5e-7
+ ngate = 1.0e+23
+ ndep = 1.7e+17
+ nsd = 1.0e+20
+ rsh = 1.0
+ rshg = 0.1
* Basic Model Parameters
+ wint = 4.1539e-8
+ lint = -2.9085e-8
+ vth0 = {-1.116496+sky130_fd_pr__pfet_01v8_hvt__vth0_slope_spectre*(sky130_fd_pr__pfet_01v8_hvt__vth0_slope/sqrt(l*w*mult))}
+ k1 = 0.43657182
+ k2 = 0.035761468
+ k3 = -13.778
+ k3b = 2.0
+ w0 = 0.0
+ dvt0 = 4.05
+ dvt1 = 0.3
+ dvt2 = 0.03
+ dvt0w = -4.254
+ dvt1w = 1147200.0
+ dvt2w = -0.00896
+ dsub = 0.56
+ minv = 0.0
+ voffl = 0.0
+ lpe0 = 0.0
+ lpeb = 0.0
+ vbm = -3.0
+ dvtp0 = 0.0
+ dvtp1 = 0.0
+ phin = 0.0
+ cdsc = 0.0
+ cdscb = 0.0
+ cdscd = 0.0
+ cit = 1.0e-5
+ voff = {-0.16745888+sky130_fd_pr__pfet_01v8_hvt__voff_slope_spectre*(sky130_fd_pr__pfet_01v8_hvt__voff_slope/sqrt(l*w*mult))}
+ nfactor = {1.6448576+sky130_fd_pr__pfet_01v8_hvt__nfactor_slope_spectre*(sky130_fd_pr__pfet_01v8_hvt__nfactor_slope/sqrt(l*w*mult))}
+ eta0 = 0.08
+ etab = -0.07
+ u0 = 0.010851298
+ ua = 8.105303e-11
+ ub = 1.2961173e-19
+ uc = -7.7670696e-11
+ ud = 0.0
+ up = 0.0
+ lp = 1.0
+ eu = 1.67
+ vtl = 0.0
+ xn = 3.0
+ vsat = 200000.0
+ a0 = 1.5
+ ags = 0.3831138
+ a1 = 0.0
+ a2 = 1.0
+ b0 = 0.0
+ b1 = 0.0
+ keta = -0.013169082
+ dwg = -5.722e-9
+ dwb = -1.7864e-8
+ pclm = 0.075489662
+ pdiblc1 = 0.39
+ pdiblc2 = 0.0036275994
+ pdiblcb = -9.5744039e-5
+ drout = 0.56
+ pscbe1 = 746475130.0
+ pscbe2 = 9.5049925e-9
+ pvag = 0.0
+ delta = 0.01
+ fprout = 0.0
+ pdits = 0.0
+ pditsl = 0.0
+ pditsd = 0.0
+ lambda = 0.0
+ lc = 5.0e-9
* Parameters FOR Asymmetric AND Bias-Dependent RDS Model
+ rdsw = 531.92
+ rsw = 0.0
+ rdw = 0.0
+ rdswmin = 0.0
+ rdwmin = 0.0
+ rswmin = 0.0
+ prwb = -0.32348
+ prwg = 0.02
+ wr = 1.0
* Impact Ionization Current Model Parameters
+ alpha0 = 1.0e-10
+ alpha1 = 1.0e-10
+ beta0 = 4.7923891
* Gidl Induced Drain Leakage Model Parameters
+ agidl = 1.0e-10
+ bgidl = 1154444600.0
+ cgidl = 300.0
+ egidl = 0.1
* Gate Dielectric Tunneling Current Model Parameters
+ toxref = 4.23e-9
+ dlcig = 0.0
+ aigbacc = 0.43
+ bigbacc = 0.054
+ cigbacc = 0.075
+ nigbacc = 1.0
+ aigbinv = 0.35
+ bigbinv = 0.03
+ cigbinv = 0.006
+ eigbinv = 1.1
+ nigbinv = 3.0
+ aigc = 0.43
+ bigc = 0.054
+ cigc = 0.075
+ aigsd = 0.43
+ bigsd = 0.054
+ cigsd = 0.075
+ nigc = 1.0
+ poxedge = 1.0
+ pigcd = 1.0
+ ntox = 1.0
+ vfbsdoff = 0.0
* Charge AND Capacitance Model Parameters
+ dlc = -1.9885e-8
+ dwc = 3.2175e-8
+ xpart = 0.0
+ cgso = 7.2e-11
+ cgdo = 7.2e-11
+ cgbo = 0.0
+ cgdl = 9.12e-12
+ cgsl = 9.12e-12
+ clc = 1.0e-7
+ cle = 0.6
+ cf = 1.2e-11
+ ckappas = 0.6
+ vfbcv = -0.1446893
+ acde = 0.552
+ moin = 14.504
+ noff = 4.0
+ voffcv = -0.1375
* High-Speed/RF Model Parameters
+ xrcrg1 = 12.0
+ xrcrg2 = 1.0
+ rbpb = 50.0
+ rbpd = 50.0
+ rbps = 50.0
+ rbdb = 50.0
+ rbsb = 50.0
+ gbmin = 1.0e-12
* Flicker AND Thermal Noise Model Parameters
+ ef = 0.88
+ noia = 1.2e+41
+ noib = 2.0e+25
+ noic = 0.0
+ em = 41000000.0
+ ntnoi = 1.0
+ lintnoi = -6.0e-8
+ af = 1.0
+ kf = 0.0
+ tnoia = 1.5
+ tnoib = 3.5
+ rnoia = 0.577
+ rnoib = 0.37
* Layout-Dependent Parasitics Model Parameters
+ xl = 0.0
+ xw = 0.0
+ dmcg = 0.0
+ dmdg = 0.0
+ dmcgt = 0.0
+ xgw = 0.0
+ xgl = 0.0
+ ngcon = 1.0
* Asymmetric Source/Drain Junction Diode Model Parameters
+ jss = 2.17e-5
+ jsws = 8.2e-10
+ ijthsfwd = 0.1
+ ijthsrev = 0.1
+ bvs = 12.8
+ xjbvs = 1.0
+ pbs = 0.6587
+ cjs = 0.000813867531
+ mjs = 0.34629
+ pbsws = 0.7418
+ cjsws = 1.041095405e-10
+ mjsws = 0.26859
+ pbswgs = 1.3925
+ cjswgs = 2.78207363e-10
+ mjswgs = 0.70393
* Temperature Dependence Parameters
+ tnom = 30.0
+ kt1 = -0.44169
+ kt2 = -0.037961
+ at = 0.0
+ ute = -0.30066
+ ua1 = 2.2116e-9
+ ub1 = -7.9359e-19
+ uc1 = 1.1985e-10
+ kt1l = 0.0
+ prt = 0.0
+ tvoff = 0.0
+ njs = 1.2556
+ tpb = 0.0019551
+ tcj = 0.0012407
+ tpbsw = 0.00014242
+ tcjsw = 0.0
+ tpbswg = 0.0
+ tcjswg = 2.0e-12
+ xtis = 2.0
+ tvfbsdoff = 0.0
* DW AND DL Parameters
+ ll = 0.0
+ wl = 0.0
+ lln = 1.0
+ wln = 1.0
+ lw = 0.0
+ ww = 0.0
+ lwn = 1.0
+ wwn = 1.0
+ lwl = 0.0
+ wwl = 0.0
+ llc = 0.0
+ wlc = 0.0
+ lwc = 0.0
+ wwc = 0.0
+ lwlc = 0.0
+ wwlc = 0.0
* Stress Parameters
+ saref = 3.0e-6
+ sbref = 3.0e-6
+ kvth0 = 2.65e-8
+ lkvth0 = 0.0
+ wkvth0 = 2.5e-7
+ pkvth0 = 0.0
+ llodvth = 0.0
+ wlodvth = 1.0
+ wlod = 0.0
+ stk2 = 0.0
+ lodk2 = 1.0
+ lodeta0 = 1.0
+ ku0 = 4.5e-8
+ lku0 = 0.0
+ wku0 = 2.5e-7
+ pku0 = 0.0
+ tku0 = 0.0
+ llodku0 = 0.0
+ wlodku0 = 1.0
+ kvsat = 0.4
+ steta0 = 0.0
* Well Proximity Effect Parameters
.model sky130_fd_pr__pfet_01v8_hvt__model.2 pmos
* Model Flag Parameters
+ lmin = 4.0e-06 lmax = 8.0e-06 wmin = 7.0e-06 wmax = 0.0001
+ level = 54.0
+ version = 4.5
+ binunit = 2.0
+ mobmod = 0.0
+ capmod = 2.0
+ igcmod = 0.0
+ igbmod = 0.0
+ geomod = 0.0
+ diomod = 1.0
+ rdsmod = 0.0
+ rbodymod = 1.0
+ rgatemod = 0.0
+ permod = 1.0
+ acnqsmod = 0.0
+ trnqsmod = 0.0
+ fnoimod = 1.0
+ tnoimod = 1.0
+ tempmod = 0.0
* Process Parameters
+ toxe = {4.44996e-09+sky130_fd_pr__pfet_01v8_hvt__toxe_slope_spectre*(4.23e-09*1.052*(sky130_fd_pr__pfet_01v8_hvt__toxe_slope/sqrt(l*w*mult)))}
+ toxm = 4.23e-9
+ dtox = 0.0
+ epsrox = 3.9
+ xj = 1.5e-7
+ ngate = 1.0e+23
+ ndep = 1.7e+17
+ nsd = 1.0e+20
+ rsh = 1.0
+ rshg = 0.1
* Basic Model Parameters
+ wint = 4.1539e-8
+ lint = -2.9085e-8
+ vth0 = {-1.115360748e+00+sky130_fd_pr__pfet_01v8_hvt__vth0_slope_spectre*(sky130_fd_pr__pfet_01v8_hvt__vth0_slope/sqrt(l*w*mult))} lvth0 = -9.148055522e-09 wvth0 = -1.134309093e-07 pvth0 = 9.140455501e-13
+ k1 = 4.360524374e-01 lk1 = 4.185273404e-09 wk1 = 5.189511220e-08 pk1 = -4.181796363e-13
+ k2 = 3.635591942e-02 lk2 = -4.790190628e-09 wk2 = -5.939575652e-08 pk2 = 4.786211033e-13
+ k3 = -13.778
+ k3b = 2.0
+ w0 = 0.0
+ dvt0 = 4.05
+ dvt1 = 0.3
+ dvt2 = 0.03
+ dvt0w = -4.254
+ dvt1w = 1147200.0
+ dvt2w = -0.00896
+ dsub = 0.56
+ minv = 0.0
+ voffl = 0.0
+ lpe0 = 0.0
+ lpeb = 0.0
+ vbm = -3.0
+ dvtp0 = 0.0
+ dvtp1 = 0.0
+ phin = 0.0
+ cdsc = 0.0
+ cdscb = 0.0
+ cdscd = 0.0
+ cit = 1.0e-5
+ voff = {-1.687790987e-01+sky130_fd_pr__pfet_01v8_hvt__voff_slope_spectre*(sky130_fd_pr__pfet_01v8_hvt__voff_slope/sqrt(l*w*mult))} lvoff = 1.063854708e-08 wvoff = 1.319121934e-07 pvoff = -1.062970879e-12
+ nfactor = {1.558907272e+00+sky130_fd_pr__pfet_01v8_hvt__nfactor_slope_spectre*(sky130_fd_pr__pfet_01v8_hvt__nfactor_slope/sqrt(l*w*mult))} lnfactor = 6.926023542e-07 wnfactor = 8.587892214e-06 pnfactor = -6.920269540e-11
+ eta0 = 0.08
+ etab = -0.07
+ u0 = 1.081580931e-02 lu0 = 2.859738705e-10 wu0 = 3.545920340e-09 pu0 = -2.857362891e-14
+ ua = 7.518714660e-11 lua = 4.726828563e-17 wua = 5.861010140e-16 pua = -4.722901608e-21
+ ub = 1.300649646e-19 lub = -3.652241838e-27 wub = -4.528581091e-26 pub = 3.649207629e-31
+ uc = -7.712339508e-11 luc = -4.410243821e-18 wuc = -5.468462292e-17 puc = 4.406579878e-22
+ ud = 0.0
+ up = 0.0
+ lp = 1.0
+ eu = 1.67
+ vtl = 0.0
+ xn = 3.0
+ vsat = 1.943948519e+05 lvsat = 4.516723660e-02 wvsat = 5.600491497e-01 pvsat = -4.512971257e-6
+ a0 = 1.522637133e+00 la0 = -1.824138688e-07 wa0 = -2.261832687e-06 pa0 = 1.822623230e-11
+ ags = 4.026310119e-01 lags = -1.572730118e-07 wags = -1.950099744e-06 pags = 1.571423525e-11
+ a1 = 0.0
+ a2 = 9.848993323e-01 la2 = 1.216031654e-07 wa2 = 1.507813064e-06 pa2 = -1.215021400e-11
+ b0 = 0.0
+ b1 = 0.0
+ keta = -1.635425645e-02 lketa = 2.566667719e-08 wketa = 3.182528269e-07 pketa = -2.564535382e-12
+ dwg = -5.722e-9
+ dwb = -1.7864e-8
+ pclm = 1.175436333e-01 lpclm = -3.388780502e-07 wpclm = -4.201903374e-06 ppclm = 3.385965171e-11
+ pdiblc1 = 0.39
+ pdiblc2 = 3.389944705e-03 lpdiblc2 = 1.915061933e-09 wpdiblc2 = 2.374572561e-08 ppdiblc2 = -1.913470938e-13
+ pdiblcb = -1.467027103e-04 lpdiblcb = 4.106336362e-10 wpdiblcb = 5.091633585e-09 ppdiblcb = -4.102924900e-14
+ drout = 0.56
+ pscbe1 = 7.505139621e+08 lpscbe1 = -3.254559539e+01 wpscbe1 = -4.035476685e+02 ppscbe1 = 3.251855716e-3
+ pscbe2 = 9.463158972e-09 lpscbe2 = 3.371016809e-16 wpscbe2 = 4.179877361e-15 ppscbe2 = -3.368216235e-20
+ pvag = 0.0
+ delta = 0.01
+ fprout = 0.0
+ pdits = 0.0
+ pditsl = 0.0
+ pditsd = 0.0
+ lambda = 0.0
+ lc = 5.0e-9
* Parameters FOR Asymmetric AND Bias-Dependent RDS Model
+ rdsw = 531.92
+ rsw = 0.0
+ rdw = 0.0
+ rdswmin = 0.0
+ rdwmin = 0.0
+ rswmin = 0.0
+ prwb = -0.32348
+ prwg = 0.02
+ wr = 1.0
* Impact Ionization Current Model Parameters
+ alpha0 = 1.0e-10
+ alpha1 = 1.0e-10
+ beta0 = 4.831931358e+00 lbeta0 = -3.186382355e-07 wbeta0 = -3.950940688e-06 pbeta0 = 3.183735172e-11
* Gidl Induced Drain Leakage Model Parameters
+ agidl = 1.034211168e-10 lagidl = -2.756794046e-17 wagidl = -3.418274567e-16 pagidl = 2.754503756e-21
+ bgidl = 1.142790657e+09 lbgidl = 9.390945669e+01 wbgidl = 1.164426149e+03 pbgidl = -9.383143859e-3
+ cgidl = 300.0
+ egidl = 0.1
* Gate Dielectric Tunneling Current Model Parameters
+ toxref = 4.23e-9
+ dlcig = 0.0
+ aigbacc = 0.43
+ bigbacc = 0.054
+ cigbacc = 0.075
+ nigbacc = 1.0
+ aigbinv = 0.35
+ bigbinv = 0.03
+ cigbinv = 0.006
+ eigbinv = 1.1
+ nigbinv = 3.0
+ aigc = 0.43
+ bigc = 0.054
+ cigc = 0.075
+ aigsd = 0.43
+ bigsd = 0.054
+ cigsd = 0.075
+ nigc = 1.0
+ poxedge = 1.0
+ pigcd = 1.0
+ ntox = 1.0
+ vfbsdoff = 0.0
* Charge AND Capacitance Model Parameters
+ dlc = -1.9885e-8
+ dwc = 3.2175e-8
+ xpart = 0.0
+ cgso = 7.2e-11
+ cgdo = 7.2e-11
+ cgbo = 0.0
+ cgdl = 9.12e-12
+ cgsl = 9.12e-12
+ clc = 1.0e-7
+ cle = 0.6
+ cf = 1.2e-11
+ ckappas = 0.6
+ vfbcv = -0.1446893
+ acde = 0.552
+ moin = 14.504
+ noff = 4.0
+ voffcv = -0.1375
* High-Speed/RF Model Parameters
+ xrcrg1 = 12.0
+ xrcrg2 = 1.0
+ rbpb = 50.0
+ rbpd = 50.0
+ rbps = 50.0
+ rbdb = 50.0
+ rbsb = 50.0
+ gbmin = 1.0e-12
* Flicker AND Thermal Noise Model Parameters
+ ef = 0.88
+ noia = 1.2e+41
+ noib = 2.0e+25
+ noic = 0.0
+ em = 41000000.0
+ ntnoi = 1.0
+ lintnoi = -6.0e-8
+ af = 1.0
+ kf = 0.0
+ tnoia = 1.5
+ tnoib = 3.5
+ rnoia = 0.577
+ rnoib = 0.37
* Layout-Dependent Parasitics Model Parameters
+ xl = 0.0
+ xw = 0.0
+ dmcg = 0.0
+ dmdg = 0.0
+ dmcgt = 0.0
+ xgw = 0.0
+ xgl = 0.0
+ ngcon = 1.0
* Asymmetric Source/Drain Junction Diode Model Parameters
+ jss = 2.17e-5
+ jsws = 8.2e-10
+ ijthsfwd = 0.1
+ ijthsrev = 0.1
+ bvs = 12.8
+ xjbvs = 1.0
+ pbs = 0.6587
+ cjs = 0.000813867531
+ mjs = 0.34629
+ pbsws = 0.7418
+ cjsws = 1.041095405e-10
+ mjsws = 0.26859
+ pbswgs = 1.3925
+ cjswgs = 2.78207363e-10
+ mjswgs = 0.70393
* Temperature Dependence Parameters
+ tnom = 30.0
+ kt1 = -4.425026731e-01 lkt1 = 6.548657891e-09 wkt1 = 8.119979347e-08 pkt1 = -6.543217397e-13
+ kt2 = -3.814096521e-02 lkt2 = 1.450190257e-09 wkt2 = 1.798156986e-08 pkt2 = -1.448985468e-13
+ at = 1.980824625e+04 lat = -1.596182157e-01 wat = -1.979178996e+00 pat = 1.594856081e-5
+ ute = -3.004781484e-01 lute = -1.465391413e-09 wute = -1.817005592e-08 pute = 1.464173995e-13
+ ua1 = 2.227204531e-09 lua1 = -1.257439603e-16 wua1 = -1.559156666e-15 pua1 = 1.256394947e-20
+ ub1 = -8.067368925e-19 lub1 = 1.059398946e-25 wub1 = 1.313597030e-24 pub1 = -1.058518818e-29
+ uc1 = 1.211380529e-10 luc1 = -1.037934914e-17 wuc1 = -1.286982799e-16 puc1 = 1.037072618e-21
+ kt1l = 0.0
+ prt = 0.0
+ tvoff = 0.0
+ njs = 1.2556
+ tpb = 0.0019551
+ tcj = 0.0012407
+ tpbsw = 0.00014242
+ tcjsw = 0.0
+ tpbswg = 0.0
+ tcjswg = 2.0e-12
+ xtis = 2.0
+ tvfbsdoff = 0.0
* DW AND DL Parameters
+ ll = 0.0
+ wl = 0.0
+ lln = 1.0
+ wln = 1.0
+ lw = 0.0
+ ww = 0.0
+ lwn = 1.0
+ wwn = 1.0
+ lwl = 0.0
+ wwl = 0.0
+ llc = 0.0
+ wlc = 0.0
+ lwc = 0.0
+ wwc = 0.0
+ lwlc = 0.0
+ wwlc = 0.0
* Stress Parameters
+ saref = 3.0e-6
+ sbref = 3.0e-6
+ kvth0 = 2.65e-8
+ lkvth0 = 0.0
+ wkvth0 = 2.5e-7
+ pkvth0 = 0.0
+ llodvth = 0.0
+ wlodvth = 1.0
+ wlod = 0.0
+ stk2 = 0.0
+ lodk2 = 1.0
+ lodeta0 = 1.0
+ ku0 = 4.5e-8
+ lku0 = 0.0
+ wku0 = 2.5e-7
+ pku0 = 0.0
+ tku0 = 0.0
+ llodku0 = 0.0
+ wlodku0 = 1.0
+ kvsat = 0.4
+ steta0 = 0.0
* Well Proximity Effect Parameters
.model sky130_fd_pr__pfet_01v8_hvt__model.3 pmos
* Model Flag Parameters
+ lmin = 2.0e-06 lmax = 4.0e-06 wmin = 7.0e-06 wmax = 0.0001
+ level = 54.0
+ version = 4.5
+ binunit = 2.0
+ mobmod = 0.0
+ capmod = 2.0
+ igcmod = 0.0
+ igbmod = 0.0
+ geomod = 0.0
+ diomod = 1.0
+ rdsmod = 0.0
+ rbodymod = 1.0
+ rgatemod = 0.0
+ permod = 1.0
+ acnqsmod = 0.0
+ trnqsmod = 0.0
+ fnoimod = 1.0
+ tnoimod = 1.0
+ tempmod = 0.0
* Process Parameters
+ toxe = {4.44996e-09+sky130_fd_pr__pfet_01v8_hvt__toxe_slope_spectre*(4.23e-09*1.052*(sky130_fd_pr__pfet_01v8_hvt__toxe_slope/sqrt(l*w*mult)))}
+ toxm = 4.23e-9
+ dtox = 0.0
+ epsrox = 3.9
+ xj = 1.5e-7
+ ngate = 1.0e+23
+ ndep = 1.7e+17
+ nsd = 1.0e+20
+ rsh = 1.0
+ rshg = 0.1
* Basic Model Parameters
+ wint = 4.1539e-8
+ lint = -2.9085e-8
+ vth0 = {-1.132529876e+00+sky130_fd_pr__pfet_01v8_hvt__vth0_slope_spectre*(sky130_fd_pr__pfet_01v8_hvt__vth0_slope/sqrt(l*w*mult))} lvth0 = 6.052718416e-08 wvth0 = 5.508338126e-08 pvth0 = 2.301859117e-13
+ k1 = 4.496812128e-01 lk1 = -5.112261417e-08 wk1 = -6.021040076e-07 pk1 = 2.235859972e-12
+ k2 = 2.473168602e-02 lk2 = 4.238292463e-08 wk2 = 2.920218154e-07 pk2 = -9.474911443e-13
+ k3 = -13.778
+ k3b = 2.0
+ w0 = 0.0
+ dvt0 = 4.05
+ dvt1 = 0.3
+ dvt2 = 0.03
+ dvt0w = -4.254
+ dvt1w = 1147200.0
+ dvt2w = -0.00896
+ dsub = 5.439684414e-01 ldsub = 6.505878998e-08 wdsub = 1.601823986e-06 pdsub = -6.500474044e-12
+ minv = 0.0
+ voffl = 0.0
+ lpe0 = 0.0
+ lpeb = 0.0
+ vbm = -3.0
+ dvtp0 = 0.0
+ dvtp1 = 0.0
+ phin = 0.0
+ cdsc = 0.0
+ cdscb = 0.0
+ cdscd = 0.0
+ cit = 1.0e-5
+ voff = {-1.439825003e-01+sky130_fd_pr__pfet_01v8_hvt__voff_slope_spectre*(sky130_fd_pr__pfet_01v8_hvt__voff_slope/sqrt(l*w*mult))} lvoff = -8.999026487e-08 wvoff = -5.466675025e-07 pvoff = 1.690820885e-12
+ nfactor = {3.089221135e+00+sky130_fd_pr__pfet_01v8_hvt__nfactor_slope_spectre*(sky130_fd_pr__pfet_01v8_hvt__nfactor_slope/sqrt(l*w*mult))} lnfactor = -5.517671454e-06 wnfactor = -2.719458015e-05 pnfactor = 7.600866048e-11
+ eta0 = 7.391517200e-02 leta0 = 2.469326643e-08 weta0 = 6.079772844e-07 peta0 = -2.467275176e-12
+ etab = -6.468055917e-02 letab = -2.158719519e-08 wetab = -5.315021543e-07 petab = 2.156926098e-12
+ u0 = 1.121725328e-02 lu0 = -1.343153981e-09 wu0 = 1.179417985e-08 pu0 = -6.204646819e-14
+ ua = 1.389910308e-10 lua = -2.116587233e-16 wua = 2.204266048e-15 pua = -1.128969041e-20
+ ub = 1.332488489e-19 lub = -1.657298547e-26 wub = -9.810181673e-25 pub = 4.162281739e-30
+ uc = -8.641091460e-11 luc = 3.328008923e-17 wuc = 1.275061871e-16 puc = -2.987032917e-22
+ ud = 0.0
+ up = 0.0
+ lp = 1.0
+ eu = 1.67
+ vtl = 0.0
+ xn = 3.0
+ vsat = 2.823927283e+05 lvsat = -3.119431056e-01 wvsat = -5.944706893e-01 pvsat = 1.722665183e-7
+ a0 = 1.148626736e+00 la0 = 1.335383906e-06 wa0 = 4.261233318e-06 pa0 = -8.245478465e-12
+ ags = 8.410057061e-02 lags = 1.135377669e-06 wags = 3.280997489e-06 pags = -5.514446606e-12
+ a1 = 0.0
+ a2 = 1.235978044e+00 la2 = -8.973169318e-07 wa2 = -3.015626127e-06 pa2 = 6.206671226e-12
+ b0 = 0.0
+ b1 = 0.0
+ keta = 3.646406548e-02 lketa = -1.886790523e-07 wketa = -6.188554003e-07 pketa = 1.238409112e-12
+ dwg = -5.722e-9
+ dwb = -1.7864e-8
+ pclm = -5.839671156e-01 lpclm = 2.507971826e-06 wpclm = 8.585282079e-06 ppclm = -1.803292068e-11
+ pdiblc1 = 0.39
+ pdiblc2 = 7.326120933e-03 lpdiblc2 = -1.405861035e-08 wpdiblc2 = -4.570039274e-08 ppdiblc2 = 9.047706036e-14
+ pdiblcb = 6.423123938e-04 lpdiblcb = -2.791323789e-09 wpdiblcb = -4.304566255e-09 ppdiblcb = -2.897872699e-15
+ drout = 0.56
+ pscbe1 = 6.833158250e+08 lpscbe1 = 2.401558684e+02 wpscbe1 = 8.070953369e+02 ppscbe1 = -1.661139410e-3
+ pscbe2 = 1.013790104e-08 lpscbe2 = -2.401116331e-15 wpscbe2 = -6.233054770e-15 ppscbe2 = 8.575286431e-21
+ pvag = 0.0
+ delta = 0.01
+ fprout = 0.0
+ pdits = 0.0
+ pditsl = 0.0
+ pditsd = 0.0
+ lambda = 0.0
+ lc = 5.0e-9
* Parameters FOR Asymmetric AND Bias-Dependent RDS Model
+ rdsw = 531.92
+ rsw = 0.0
+ rdw = 0.0
+ rdswmin = 0.0
+ rdwmin = 0.0
+ rswmin = 0.0
+ prwb = -0.32348
+ prwg = 0.02
+ wr = 1.0
* Impact Ionization Current Model Parameters
+ alpha0 = 1.0e-10
+ alpha1 = 1.0e-10
+ beta0 = 4.325229279e+00 lbeta0 = 1.737644938e-06 wbeta0 = -7.205805815e-06 pbeta0 = 4.504614774e-11
* Gidl Induced Drain Leakage Model Parameters
+ agidl = 4.343435213e-11 lagidl = 2.158685482e-16 wagidl = 9.900184142e-16 pagidl = -2.650353201e-21
+ bgidl = 1.336689108e+09 lbgidl = -6.929634212e+02 wbgidl = -2.328852298e+03 pbgidl = 4.793173933e-3
+ cgidl = 300.0
+ egidl = 0.1
* Gate Dielectric Tunneling Current Model Parameters
+ toxref = 4.23e-9
+ dlcig = 0.0
+ aigbacc = 0.43
+ bigbacc = 0.054
+ cigbacc = 0.075
+ nigbacc = 1.0
+ aigbinv = 0.35
+ bigbinv = 0.03
+ cigbinv = 0.006
+ eigbinv = 1.1
+ nigbinv = 3.0
+ aigc = 0.43
+ bigc = 0.054
+ cigc = 0.075
+ aigsd = 0.43
+ bigsd = 0.054
+ cigsd = 0.075
+ nigc = 1.0
+ poxedge = 1.0
+ pigcd = 1.0
+ ntox = 1.0
+ vfbsdoff = 0.0
* Charge AND Capacitance Model Parameters
+ dlc = -1.9885e-8
+ dwc = 3.2175e-8
+ xpart = 0.0
+ cgso = 7.2e-11
+ cgdo = 7.2e-11
+ cgbo = 0.0
+ cgdl = 9.12e-12
+ cgsl = 9.12e-12
+ clc = 1.0e-7
+ cle = 0.6
+ cf = 1.2e-11
+ ckappas = 0.6
+ vfbcv = -0.1446893
+ acde = 0.552
+ moin = 14.504
+ noff = 4.0
+ voffcv = -0.1375
* High-Speed/RF Model Parameters
+ xrcrg1 = 12.0
+ xrcrg2 = 1.0
+ rbpb = 50.0
+ rbpd = 50.0
+ rbps = 50.0
+ rbdb = 50.0
+ rbsb = 50.0
+ gbmin = 1.0e-12
* Flicker AND Thermal Noise Model Parameters
+ ef = 0.88
+ noia = 1.2e+41
+ noib = 2.0e+25
+ noic = 0.0
+ em = 41000000.0
+ ntnoi = 1.0
+ lintnoi = -6.0e-8
+ af = 1.0
+ kf = 0.0
+ tnoia = 1.5
+ tnoib = 3.5
+ rnoia = 0.577
+ rnoib = 0.37
* Layout-Dependent Parasitics Model Parameters
+ xl = 0.0
+ xw = 0.0
+ dmcg = 0.0
+ dmdg = 0.0
+ dmcgt = 0.0
+ xgw = 0.0
+ xgl = 0.0
+ ngcon = 1.0
* Asymmetric Source/Drain Junction Diode Model Parameters
+ jss = 2.17e-5
+ jsws = 8.2e-10
+ ijthsfwd = 0.1
+ ijthsrev = 0.1
+ bvs = 12.8
+ xjbvs = 1.0
+ pbs = 0.6587
+ cjs = 0.000813867531
+ mjs = 0.34629
+ pbsws = 0.7418
+ cjsws = 1.041095405e-10
+ mjsws = 0.26859
+ pbswgs = 1.3925
+ cjswgs = 2.78207363e-10
+ mjswgs = 0.70393
* Temperature Dependence Parameters
+ tnom = 30.0
+ kt1 = -4.273136297e-01 lkt1 = -5.509106218e-08 wkt1 = -3.290388955e-07 pkt1 = 1.010496601e-12
+ kt2 = -3.540295348e-02 lkt2 = -9.661126809e-09 wkt2 = -1.035926616e-08 pkt2 = -2.988661629e-14
+ at = -3.228964051e+05 lat = 1.231135519e+00 wat = 5.270747699e+00 pat = -1.347287421e-5
+ ute = -2.934284710e-01 lute = -3.007418042e-08 wute = -9.703555585e-07 pute = 4.010548040e-12
+ ua1 = 1.922938781e-09 lua1 = 1.109018176e-15 wua1 = 7.578342920e-15 pua1 = -2.451757722e-20
+ ub1 = -5.626399278e-19 lub1 = -8.846470846e-25 wub1 = -5.160968071e-24 pub1 = 1.568969768e-29
+ uc1 = 8.369283483e-11 luc1 = 1.415797114e-16 wuc1 = 1.857523945e-15 puc1 = -7.023354827e-21
+ kt1l = 0.0
+ prt = 0.0
+ tvoff = 0.0
+ njs = 1.2556
+ tpb = 0.0019551
+ tcj = 0.0012407
+ tpbsw = 0.00014242
+ tcjsw = 0.0
+ tpbswg = 0.0
+ tcjswg = 2.0e-12
+ xtis = 2.0
+ tvfbsdoff = 0.0
* DW AND DL Parameters
+ ll = 0.0
+ wl = 0.0
+ lln = 1.0
+ wln = 1.0
+ lw = 0.0
+ ww = 0.0
+ lwn = 1.0
+ wwn = 1.0
+ lwl = 0.0
+ wwl = 0.0
+ llc = 0.0
+ wlc = 0.0
+ lwc = 0.0
+ wwc = 0.0
+ lwlc = 0.0
+ wwlc = 0.0
* Stress Parameters
+ saref = 3.0e-6
+ sbref = 3.0e-6
+ kvth0 = 2.65e-8
+ lkvth0 = 0.0
+ wkvth0 = 2.5e-7
+ pkvth0 = 0.0
+ llodvth = 0.0
+ wlodvth = 1.0
+ wlod = 0.0
+ stk2 = 0.0
+ lodk2 = 1.0
+ lodeta0 = 1.0
+ ku0 = 4.5e-8
+ lku0 = 0.0
+ wku0 = 2.5e-7
+ pku0 = 0.0
+ tku0 = 0.0
+ llodku0 = 0.0
+ wlodku0 = 1.0
+ kvsat = 0.4
+ steta0 = 0.0
* Well Proximity Effect Parameters
.model sky130_fd_pr__pfet_01v8_hvt__model.4 pmos
* Model Flag Parameters
+ lmin = 1.0e-06 lmax = 2.0e-06 wmin = 7.0e-06 wmax = 0.0001
+ level = 54.0
+ version = 4.5
+ binunit = 2.0
+ mobmod = 0.0
+ capmod = 2.0
+ igcmod = 0.0
+ igbmod = 0.0
+ geomod = 0.0
+ diomod = 1.0
+ rdsmod = 0.0
+ rbodymod = 1.0
+ rgatemod = 0.0
+ permod = 1.0
+ acnqsmod = 0.0
+ trnqsmod = 0.0
+ fnoimod = 1.0
+ tnoimod = 1.0
+ tempmod = 0.0
* Process Parameters
+ toxe = {4.44996e-09+sky130_fd_pr__pfet_01v8_hvt__toxe_slope_spectre*(4.23e-09*1.052*(sky130_fd_pr__pfet_01v8_hvt__toxe_slope/sqrt(l*w*mult)))}
+ toxm = 4.23e-9
+ dtox = 0.0
+ epsrox = 3.9
+ xj = 1.5e-7
+ ngate = 1.0e+23
+ ndep = 1.7e+17
+ nsd = 1.0e+20
+ rsh = 1.0
+ rshg = 0.1
* Basic Model Parameters
+ wint = 4.1539e-8
+ lint = -2.9085e-8
+ vth0 = {-1.103201497e+00+sky130_fd_pr__pfet_01v8_hvt__vth0_slope_spectre*(sky130_fd_pr__pfet_01v8_hvt__vth0_slope/sqrt(l*w*mult))} lvth0 = 1.643954793e-10 wvth0 = 1.749042911e-07 pvth0 = -1.642589028e-14
+ k1 = 4.208874299e-01 lk1 = 8.139886086e-09 wk1 = 8.793928245e-07 pk1 = -8.133123631e-13
+ k2 = 4.611168922e-02 lk2 = -1.620756548e-09 wk2 = -2.470163350e-07 pk2 = 1.619410056e-13
+ k3 = -13.778
+ k3b = 2.0
+ w0 = 0.0
+ dvt0 = 4.05
+ dvt1 = 0.3
+ dvt2 = 0.03
+ dvt0w = -4.254
+ dvt1w = 1147200.0
+ dvt2w = -0.00896
+ dsub = 6.266919657e-01 ldsub = -1.052002859e-07 wdsub = -6.663655931e-06 pdsub = 1.051128876e-11
+ minv = 0.0
+ voffl = 0.0
+ lpe0 = 0.0
+ lpeb = 0.0
+ vbm = -3.0
+ dvtp0 = 0.0
+ dvtp1 = 0.0
+ phin = 0.0
+ cdsc = 0.0
+ cdscb = 0.0
+ cdscd = 0.0
+ cit = 1.0e-5
+ voff = {-1.889773804e-01+sky130_fd_pr__pfet_01v8_hvt__voff_slope_spectre*(sky130_fd_pr__pfet_01v8_hvt__voff_slope/sqrt(l*w*mult))} lvoff = 2.616847530e-09 wvoff = 4.018878820e-07 pvoff = -2.614673506e-13
+ nfactor = {3.855746458e-01+sky130_fd_pr__pfet_01v8_hvt__nfactor_slope_spectre*(sky130_fd_pr__pfet_01v8_hvt__nfactor_slope/sqrt(l*w*mult))} lnfactor = 4.689264014e-08 wnfactor = 1.201210771e-05 pnfactor = -4.685368267e-12
+ eta0 = 1.031707210e-01 leta0 = -3.551962676e-08 weta0 = -2.315147119e-06 peta0 = 3.549011777e-12
+ etab = -7.520844859e-02 letab = 8.099097412e-11 wetab = 5.204121513e-07 petab = -8.092368843e-15
+ u0 = 1.055098535e-02 lu0 = 2.813867794e-11 wu0 = -1.698621152e-08 pu0 = -2.811530089e-15
+ ua = 3.221364741e-11 lua = 8.107283979e-18 wua = -2.887458904e-15 pua = -8.100548610e-22
+ ub = 1.240130477e-19 lub = 2.435863480e-27 wub = 1.159556091e-24 pub = -2.433839813e-31
+ uc = -6.954668686e-11 luc = -1.429358354e-18 wuc = -8.701466337e-17 puc = 1.428170872e-22
+ ud = 0.0
+ up = 0.0
+ lp = 1.0
+ eu = 1.67
+ vtl = 0.0
+ xn = 3.0
+ vsat = 1.333293373e+05 lvsat = -5.145306209e-03 wvsat = -7.605583501e-01 pvsat = 5.141031592e-7
+ a0 = 1.794488058e+00 la0 = 6.091509343e-09 wa0 = 5.507363225e-07 pa0 = -6.086448639e-13
+ ags = 6.501711252e-01 lags = -2.969176410e-08 wags = -8.397293135e-07 pags = 2.966709677e-12
+ a1 = 0.0
+ a2 = 0.8
+ b0 = 0.0
+ b1 = 0.0
+ keta = -5.396872968e-02 lketa = -2.552986309e-09 wketa = -1.410899202e-07 pketa = 2.550865339e-13
+ dwg = -5.722e-9
+ dwb = -1.7864e-8
+ pclm = 6.434649028e-01 lpclm = -1.829193137e-08 wpclm = -1.064355297e-06 ppclm = 1.827673480e-12
+ pdiblc1 = 3.864232508e-01 lpdiblc1 = 7.361557965e-09 wpdiblc1 = 3.573777739e-07 ppdiblc1 = -7.355442130e-13