* Copyright 2020 The SkyWater PDK Authors
*
* Licensed under the Apache License, Version 2.0 (the "License");
* you may not use this file except in compliance with the License.
* You may obtain a copy of the License at
*
*     https://www.apache.org/licenses/LICENSE-2.0
*
* Unless required by applicable law or agreed to in writing, software
* distributed under the License is distributed on an "AS IS" BASIS,
* WITHOUT WARRANTIES OR CONDITIONS OF ANY KIND, either express or implied.
* See the License for the specific language governing permissions and
* limitations under the License.

* SKY130 Spice File.
.param sky130_fd_pr__pfet_01v8_hvt__toxe_slope_spectre = 0.0
.param sky130_fd_pr__pfet_01v8_hvt__vth0_slope_spectre = 0.0
.param sky130_fd_pr__pfet_01v8_hvt__voff_slope_spectre = 0.0
.param sky130_fd_pr__pfet_01v8_hvt__nfactor_slope_spectre = 0.0
* statistics {
*   process {
*   }
*   mismatch {
*     vary sky130_fd_pr__pfet_01v8_hvt__toxe_slope_spectre dist=gauss std = 1.0
*     vary sky130_fd_pr__pfet_01v8_hvt__vth0_slope_spectre dist=gauss std = 1.0
*     vary sky130_fd_pr__pfet_01v8_hvt__voff_slope_spectre dist=gauss std = 1.0
*     vary sky130_fd_pr__pfet_01v8_hvt__nfactor_slope_spectre dist=gauss std = 1.0
*   }
* }
.subckt  sky130_fd_pr__pfet_01v8_hvt d g s b
+ 
.param  l = 1 w = 1 ad = 0 as = 0 pd = 0 ps = 0 nrd = 0 nrs = 0 sa = 0 sb = 0 sd = 0 mult = 1 nf = 1.0
msky130_fd_pr__pfet_01v8_hvt d g s b sky130_fd_pr__pfet_01v8_hvt__model l = {l} w = {w} ad = {ad} as = {as} pd = {pd} ps = {ps} nrd = {nrd} nrs = {nrs} sa = {sa} sb = {sb} sd = {sd} nf = {nf}
.model sky130_fd_pr__pfet_01v8_hvt__model.0 pmos
* Model Flag Parameters
+ lmin = 2.0e-05 lmax = 0.0001 wmin = 7.0e-06 wmax = 0.0001
+ level = 54.0
+ version = 4.5
+ binunit = 2.0
+ mobmod = 0.0
+ capmod = 2.0
+ igcmod = 0.0
+ igbmod = 0.0
+ geomod = 0.0
+ diomod = 1.0
+ rdsmod = 0.0
+ rbodymod = 1.0
+ rgatemod = 0.0
+ permod = 1.0
+ acnqsmod = 0.0
+ trnqsmod = 0.0
+ fnoimod = 1.0
+ tnoimod = 1.0
+ tempmod = 0.0
* Process Parameters
+ toxe = {4.384395e-09+sky130_fd_pr__pfet_01v8_hvt__toxe_slope_spectre*(4.23e-09*1.0365*(sky130_fd_pr__pfet_01v8_hvt__toxe_slope/sqrt(l*w*mult)))}
+ toxm = 4.23e-9
+ dtox = 0.0
+ epsrox = 3.9
+ xj = 1.5e-7
+ ngate = 1.0e+23
+ ndep = 1.7e+17
+ nsd = 1.0e+20
+ rsh = 1.0
+ rshg = 0.1
* Basic Model Parameters
+ wint = 3.1884e-8
+ lint = -2.38875e-8
+ vth0 = {-1.095122+sky130_fd_pr__pfet_01v8_hvt__vth0_slope_spectre*(sky130_fd_pr__pfet_01v8_hvt__vth0_slope/sqrt(l*w*mult))}
+ k1 = 0.43657182
+ k2 = 0.038826066
+ k3 = -13.778
+ k3b = 2.0
+ w0 = 0.0
+ dvt0 = 4.05
+ dvt1 = 0.3
+ dvt2 = 0.03
+ dvt0w = -4.254
+ dvt1w = 1147200.0
+ dvt2w = -0.00896
+ dsub = 0.56
+ minv = 0.0
+ voffl = 0.0
+ lpe0 = 0.0
+ lpeb = 0.0
+ vbm = -3.0
+ dvtp0 = 0.0
+ dvtp1 = 0.0
+ phin = 0.0
+ cdsc = 0.0
+ cdscb = 0.0
+ cdscd = 0.0
+ cit = 1.0e-5
+ voff = {-0.16832488+sky130_fd_pr__pfet_01v8_hvt__voff_slope_spectre*(sky130_fd_pr__pfet_01v8_hvt__voff_slope/sqrt(l*w*mult))}
+ nfactor = {1.5988376+sky130_fd_pr__pfet_01v8_hvt__nfactor_slope_spectre*(sky130_fd_pr__pfet_01v8_hvt__nfactor_slope/sqrt(l*w*mult))}
+ eta0 = 0.08
+ etab = -0.07
+ u0 = 0.009347598
+ ua = -5.257697e-11
+ ub = 7.671173e-20
+ uc = -7.7670696e-11
+ ud = 0.0
+ up = 0.0
+ lp = 1.0
+ eu = 1.67
+ vtl = 0.0
+ xn = 3.0
+ vsat = 200000.0
+ a0 = 1.597986
+ ags = 0.2656338
+ a1 = 0.0
+ a2 = 1.0
+ b0 = 0.0
+ b1 = 0.0
+ keta = -0.013169082
+ dwg = -5.722e-9
+ dwb = -1.7864e-8
+ pclm = 0.075489662
+ pdiblc1 = 0.39
+ pdiblc2 = 0.0036275994
+ pdiblcb = -9.5744039e-5
+ drout = 0.56
+ pscbe1 = 746475130.0
+ pscbe2 = 9.5049925e-9
+ pvag = 0.0
+ delta = 0.01
+ fprout = 0.0
+ pdits = 0.0
+ pditsl = 0.0
+ pditsd = 0.0
+ lambda = 0.0
+ lc = 5.0e-9
* Parameters FOR Asymmetric AND Bias-Dependent RDS Model
+ rdsw = 531.92
+ rsw = 0.0
+ rdw = 0.0
+ rdswmin = 0.0
+ rdwmin = 0.0
+ rswmin = 0.0
+ prwb = -0.32348
+ prwg = 0.02
+ wr = 1.0
* Impact Ionization Current Model Parameters
+ alpha0 = 1.0e-10
+ alpha1 = 1.0e-10
+ beta0 = 4.7923891
* Gidl Induced Drain Leakage Model Parameters
+ agidl = 1.0e-10
+ bgidl = 1154444600.0
+ cgidl = 300.0
+ egidl = 0.1
* Gate Dielectric Tunneling Current Model Parameters
+ toxref = 4.23e-9
+ dlcig = 0.0
+ aigbacc = 0.43
+ bigbacc = 0.054
+ cigbacc = 0.075
+ nigbacc = 1.0
+ aigbinv = 0.35
+ bigbinv = 0.03
+ cigbinv = 0.006
+ eigbinv = 1.1
+ nigbinv = 3.0
+ aigc = 0.43
+ bigc = 0.054
+ cigc = 0.075
+ aigsd = 0.43
+ bigsd = 0.054
+ cigsd = 0.075
+ nigc = 1.0
+ poxedge = 1.0
+ pigcd = 1.0
+ ntox = 1.0
+ vfbsdoff = 0.0
* Charge AND Capacitance Model Parameters
+ dlc = -1.46875e-8
+ dwc = 2.252e-8
+ xpart = 0.0
+ cgso = 6.9684e-11
+ cgdo = 6.9684e-11
+ cgbo = 0.0
+ cgdl = 8.82664e-12
+ cgsl = 8.82664e-12
+ clc = 1.0e-7
+ cle = 0.6
+ cf = 1.2e-11
+ ckappas = 0.6
+ vfbcv = -0.1446893
+ acde = 0.552
+ moin = 14.504
+ noff = 4.0
+ voffcv = -0.1375
* High-Speed/RF Model Parameters
+ xrcrg1 = 12.0
+ xrcrg2 = 1.0
+ rbpb = 50.0
+ rbpd = 50.0
+ rbps = 50.0
+ rbdb = 50.0
+ rbsb = 50.0
+ gbmin = 1.0e-12
* Flicker AND Thermal Noise Model Parameters
+ ef = 0.88
+ noia = 1.2e+41
+ noib = 2.0e+25
+ noic = 0.0
+ em = 41000000.0
+ ntnoi = 1.0
+ lintnoi = -6.0e-8
+ af = 1.0
+ kf = 0.0
+ tnoia = 1.5
+ tnoib = 3.5
+ rnoia = 0.577
+ rnoib = 0.37
* Layout-Dependent Parasitics Model Parameters
+ xl = 0.0
+ xw = 0.0
+ dmcg = 0.0
+ dmdg = 0.0
+ dmcgt = 0.0
+ xgw = 0.0
+ xgl = 0.0
+ ngcon = 1.0
* Asymmetric Source/Drain Junction Diode Model Parameters
+ jss = 2.17e-5
+ jsws = 8.2e-10
+ ijthsfwd = 0.1
+ ijthsrev = 0.1
+ bvs = 12.8
+ xjbvs = 1.0
+ pbs = 0.6587
+ cjs = 0.000792710451
+ mjs = 0.34629
+ pbsws = 0.7418
+ cjsws = 1.01401195e-10
+ mjsws = 0.26859
+ pbswgs = 1.3925
+ cjswgs = 2.7096997e-10
+ mjswgs = 0.70393
* Temperature Dependence Parameters
+ tnom = 30.0
+ kt1 = -0.44169
+ kt2 = -0.037961
+ at = 0.0
+ ute = -0.30066
+ ua1 = 2.2116e-9
+ ub1 = -7.9359e-19
+ uc1 = 1.1985e-10
+ kt1l = 0.0
+ prt = 0.0
+ tvoff = 0.0
+ njs = 1.2556
+ tpb = 0.0019551
+ tcj = 0.0012407
+ tpbsw = 0.00014242
+ tcjsw = 0.0
+ tpbswg = 0.0
+ tcjswg = 2.0e-12
+ xtis = 2.0
+ tvfbsdoff = 0.0
* DW AND DL Parameters
+ ll = 0.0
+ wl = 0.0
+ lln = 1.0
+ wln = 1.0
+ lw = 0.0
+ ww = 0.0
+ lwn = 1.0
+ wwn = 1.0
+ lwl = 0.0
+ wwl = 0.0
+ llc = 0.0
+ wlc = 0.0
+ lwc = 0.0
+ wwc = 0.0
+ lwlc = 0.0
+ wwlc = 0.0
* Stress Parameters
+ saref = 3.0e-6
+ sbref = 3.0e-6
+ kvth0 = 2.65e-8
+ lkvth0 = 0.0
+ wkvth0 = 2.5e-7
+ pkvth0 = 0.0
+ llodvth = 0.0
+ wlodvth = 1.0
+ wlod = 0.0
+ stk2 = 0.0
+ lodk2 = 1.0
+ lodeta0 = 1.0
+ ku0 = 4.5e-8
+ lku0 = 0.0
+ wku0 = 2.5e-7
+ pku0 = 0.0
+ tku0 = 0.0
+ llodku0 = 0.0
+ wlodku0 = 1.0
+ kvsat = 0.4
+ steta0 = 0.0
* Well Proximity Effect Parameters
.model sky130_fd_pr__pfet_01v8_hvt__model.1 pmos
* Model Flag Parameters
+ lmin = 8.0e-06 lmax = 2.0e-05 wmin = 7.0e-06 wmax = 0.0001
+ level = 54.0
+ version = 4.5
+ binunit = 2.0
+ mobmod = 0.0
+ capmod = 2.0
+ igcmod = 0.0
+ igbmod = 0.0
+ geomod = 0.0
+ diomod = 1.0
+ rdsmod = 0.0
+ rbodymod = 1.0
+ rgatemod = 0.0
+ permod = 1.0
+ acnqsmod = 0.0
+ trnqsmod = 0.0
+ fnoimod = 1.0
+ tnoimod = 1.0
+ tempmod = 0.0
* Process Parameters
+ toxe = {4.384395e-09+sky130_fd_pr__pfet_01v8_hvt__toxe_slope_spectre*(4.23e-09*1.0365*(sky130_fd_pr__pfet_01v8_hvt__toxe_slope/sqrt(l*w*mult)))}
+ toxm = 4.23e-9
+ dtox = 0.0
+ epsrox = 3.9
+ xj = 1.5e-7
+ ngate = 1.0e+23
+ ndep = 1.7e+17
+ nsd = 1.0e+20
+ rsh = 1.0
+ rshg = 0.1
* Basic Model Parameters
+ wint = 3.1884e-8
+ lint = -2.38875e-8
+ vth0 = {-1.095122+sky130_fd_pr__pfet_01v8_hvt__vth0_slope_spectre*(sky130_fd_pr__pfet_01v8_hvt__vth0_slope/sqrt(l*w*mult))}
+ k1 = 0.43657182
+ k2 = 0.038826066
+ k3 = -13.778
+ k3b = 2.0
+ w0 = 0.0
+ dvt0 = 4.05
+ dvt1 = 0.3
+ dvt2 = 0.03
+ dvt0w = -4.254
+ dvt1w = 1147200.0
+ dvt2w = -0.00896
+ dsub = 0.56
+ minv = 0.0
+ voffl = 0.0
+ lpe0 = 0.0
+ lpeb = 0.0
+ vbm = -3.0
+ dvtp0 = 0.0
+ dvtp1 = 0.0
+ phin = 0.0
+ cdsc = 0.0
+ cdscb = 0.0
+ cdscd = 0.0
+ cit = 1.0e-5
+ voff = {-0.16832488+sky130_fd_pr__pfet_01v8_hvt__voff_slope_spectre*(sky130_fd_pr__pfet_01v8_hvt__voff_slope/sqrt(l*w*mult))}
+ nfactor = {1.5988376+sky130_fd_pr__pfet_01v8_hvt__nfactor_slope_spectre*(sky130_fd_pr__pfet_01v8_hvt__nfactor_slope/sqrt(l*w*mult))}
+ eta0 = 0.08
+ etab = -0.07
+ u0 = 0.009347598
+ ua = -5.257697e-11
+ ub = 7.671173e-20
+ uc = -7.7670696e-11
+ ud = 0.0
+ up = 0.0
+ lp = 1.0
+ eu = 1.67
+ vtl = 0.0
+ xn = 3.0
+ vsat = 200000.0
+ a0 = 1.597986
+ ags = 0.2656338
+ a1 = 0.0
+ a2 = 1.0
+ b0 = 0.0
+ b1 = 0.0
+ keta = -0.013169082
+ dwg = -5.722e-9
+ dwb = -1.7864e-8
+ pclm = 0.075489662
+ pdiblc1 = 0.39
+ pdiblc2 = 0.0036275994
+ pdiblcb = -9.5744039e-5
+ drout = 0.56
+ pscbe1 = 746475130.0
+ pscbe2 = 9.5049925e-9
+ pvag = 0.0
+ delta = 0.01
+ fprout = 0.0
+ pdits = 0.0
+ pditsl = 0.0
+ pditsd = 0.0
+ lambda = 0.0
+ lc = 5.0e-9
* Parameters FOR Asymmetric AND Bias-Dependent RDS Model
+ rdsw = 531.92
+ rsw = 0.0
+ rdw = 0.0
+ rdswmin = 0.0
+ rdwmin = 0.0
+ rswmin = 0.0
+ prwb = -0.32348
+ prwg = 0.02
+ wr = 1.0
* Impact Ionization Current Model Parameters
+ alpha0 = 1.0e-10
+ alpha1 = 1.0e-10
+ beta0 = 4.7923891
* Gidl Induced Drain Leakage Model Parameters
+ agidl = 1.0e-10
+ bgidl = 1154444600.0
+ cgidl = 300.0
+ egidl = 0.1
* Gate Dielectric Tunneling Current Model Parameters
+ toxref = 4.23e-9
+ dlcig = 0.0
+ aigbacc = 0.43
+ bigbacc = 0.054
+ cigbacc = 0.075
+ nigbacc = 1.0
+ aigbinv = 0.35
+ bigbinv = 0.03
+ cigbinv = 0.006
+ eigbinv = 1.1
+ nigbinv = 3.0
+ aigc = 0.43
+ bigc = 0.054
+ cigc = 0.075
+ aigsd = 0.43
+ bigsd = 0.054
+ cigsd = 0.075
+ nigc = 1.0
+ poxedge = 1.0
+ pigcd = 1.0
+ ntox = 1.0
+ vfbsdoff = 0.0
* Charge AND Capacitance Model Parameters
+ dlc = -1.46875e-8
+ dwc = 2.252e-8
+ xpart = 0.0
+ cgso = 6.9684e-11
+ cgdo = 6.9684e-11
+ cgbo = 0.0
+ cgdl = 8.82664e-12
+ cgsl = 8.82664e-12
+ clc = 1.0e-7
+ cle = 0.6
+ cf = 1.2e-11
+ ckappas = 0.6
+ vfbcv = -0.1446893
+ acde = 0.552
+ moin = 14.504
+ noff = 4.0
+ voffcv = -0.1375
* High-Speed/RF Model Parameters
+ xrcrg1 = 12.0
+ xrcrg2 = 1.0
+ rbpb = 50.0
+ rbpd = 50.0
+ rbps = 50.0
+ rbdb = 50.0
+ rbsb = 50.0
+ gbmin = 1.0e-12
* Flicker AND Thermal Noise Model Parameters
+ ef = 0.88
+ noia = 1.2e+41
+ noib = 2.0e+25
+ noic = 0.0
+ em = 41000000.0
+ ntnoi = 1.0
+ lintnoi = -6.0e-8
+ af = 1.0
+ kf = 0.0
+ tnoia = 1.5
+ tnoib = 3.5
+ rnoia = 0.577
+ rnoib = 0.37
* Layout-Dependent Parasitics Model Parameters
+ xl = 0.0
+ xw = 0.0
+ dmcg = 0.0
+ dmdg = 0.0
+ dmcgt = 0.0
+ xgw = 0.0
+ xgl = 0.0
+ ngcon = 1.0
* Asymmetric Source/Drain Junction Diode Model Parameters
+ jss = 2.17e-5
+ jsws = 8.2e-10
+ ijthsfwd = 0.1
+ ijthsrev = 0.1
+ bvs = 12.8
+ xjbvs = 1.0
+ pbs = 0.6587
+ cjs = 0.000792710451
+ mjs = 0.34629
+ pbsws = 0.7418
+ cjsws = 1.01401195e-10
+ mjsws = 0.26859
+ pbswgs = 1.3925
+ cjswgs = 2.7096997e-10
+ mjswgs = 0.70393
* Temperature Dependence Parameters
+ tnom = 30.0
+ kt1 = -0.44169
+ kt2 = -0.037961
+ at = 0.0
+ ute = -0.30066
+ ua1 = 2.2116e-9
+ ub1 = -7.9359e-19
+ uc1 = 1.1985e-10
+ kt1l = 0.0
+ prt = 0.0
+ tvoff = 0.0
+ njs = 1.2556
+ tpb = 0.0019551
+ tcj = 0.0012407
+ tpbsw = 0.00014242
+ tcjsw = 0.0
+ tpbswg = 0.0
+ tcjswg = 2.0e-12
+ xtis = 2.0
+ tvfbsdoff = 0.0
* DW AND DL Parameters
+ ll = 0.0
+ wl = 0.0
+ lln = 1.0
+ wln = 1.0
+ lw = 0.0
+ ww = 0.0
+ lwn = 1.0
+ wwn = 1.0
+ lwl = 0.0
+ wwl = 0.0
+ llc = 0.0
+ wlc = 0.0
+ lwc = 0.0
+ wwc = 0.0
+ lwlc = 0.0
+ wwlc = 0.0
* Stress Parameters
+ saref = 3.0e-6
+ sbref = 3.0e-6
+ kvth0 = 2.65e-8
+ lkvth0 = 0.0
+ wkvth0 = 2.5e-7
+ pkvth0 = 0.0
+ llodvth = 0.0
+ wlodvth = 1.0
+ wlod = 0.0
+ stk2 = 0.0
+ lodk2 = 1.0
+ lodeta0 = 1.0
+ ku0 = 4.5e-8
+ lku0 = 0.0
+ wku0 = 2.5e-7
+ pku0 = 0.0
+ tku0 = 0.0
+ llodku0 = 0.0
+ wlodku0 = 1.0
+ kvsat = 0.4
+ steta0 = 0.0
* Well Proximity Effect Parameters
.model sky130_fd_pr__pfet_01v8_hvt__model.2 pmos
* Model Flag Parameters
+ lmin = 4.0e-06 lmax = 8.0e-06 wmin = 7.0e-06 wmax = 0.0001
+ level = 54.0
+ version = 4.5
+ binunit = 2.0
+ mobmod = 0.0
+ capmod = 2.0
+ igcmod = 0.0
+ igbmod = 0.0
+ geomod = 0.0
+ diomod = 1.0
+ rdsmod = 0.0
+ rbodymod = 1.0
+ rgatemod = 0.0
+ permod = 1.0
+ acnqsmod = 0.0
+ trnqsmod = 0.0
+ fnoimod = 1.0
+ tnoimod = 1.0
+ tempmod = 0.0
* Process Parameters
+ toxe = {4.384395e-09+sky130_fd_pr__pfet_01v8_hvt__toxe_slope_spectre*(4.23e-09*1.0365*(sky130_fd_pr__pfet_01v8_hvt__toxe_slope/sqrt(l*w*mult)))}
+ toxm = 4.23e-9
+ dtox = 0.0
+ epsrox = 3.9
+ xj = 1.5e-7
+ ngate = 1.0e+23
+ ndep = 1.7e+17
+ nsd = 1.0e+20
+ rsh = 1.0
+ rshg = 0.1
* Basic Model Parameters
+ wint = 3.1884e-8
+ lint = -2.38875e-8
+ vth0 = {-1.094651495e+00+sky130_fd_pr__pfet_01v8_hvt__vth0_slope_spectre*(sky130_fd_pr__pfet_01v8_hvt__vth0_slope/sqrt(l*w*mult))} lvth0 = -3.786514799e-09 wvth0 = -4.702045241e-08 pvth0 = 3.784100214e-13
+ k1 = 4.360523215e-01 lk1 = 4.180806759e-09 wk1 = 5.191671912e-08 pk1 = -4.178140742e-13
+ k2 = 3.905734125e-02 lk2 = -1.861251206e-09 wk2 = -2.311277742e-08 pk2 = 1.860064323e-13
+ k3 = -13.778
+ k3b = 2.0
+ w0 = 0.0
+ dvt0 = 4.05
+ dvt1 = 0.3
+ dvt2 = 0.03
+ dvt0w = -4.254
+ dvt1w = 1147200.0
+ dvt2w = -0.00896
+ dsub = 0.56
+ minv = 0.0
+ voffl = 0.0
+ lpe0 = 0.0
+ lpeb = 0.0
+ vbm = -3.0
+ dvtp0 = 0.0
+ dvtp1 = 0.0
+ phin = 0.0
+ cdsc = 0.0
+ cdscb = 0.0
+ cdscd = 0.0
+ cit = 1.0e-5
+ voff = {-1.682664013e-01+sky130_fd_pr__pfet_01v8_hvt__voff_slope_spectre*(sky130_fd_pr__pfet_01v8_hvt__voff_slope/sqrt(l*w*mult))} lvoff = -4.706235798e-10 wvoff = -5.844142915e-09 pvoff = 4.703234725e-14
+ nfactor = {1.594203349e+00+sky130_fd_pr__pfet_01v8_hvt__nfactor_slope_spectre*(sky130_fd_pr__pfet_01v8_hvt__nfactor_slope/sqrt(l*w*mult))} lnfactor = 3.729540931e-08 wnfactor = 4.631295827e-07 pnfactor = -3.727162678e-12
+ eta0 = 0.08
+ etab = -0.07
+ u0 = 9.359080907e-03 lu0 = -9.241185555e-11 wu0 = -1.147558504e-09 pu0 = 9.235292636e-15
+ ua = -4.920615129e-11 lua = -2.712759058e-17 wua = -3.368669211e-16 pua = 2.711029186e-21
+ ub = 7.263134604e-20 lub = 3.283801204e-26 wub = 4.077781983e-25 pub = -3.281707190e-30
+ uc = -7.712327301e-11 luc = -4.405537080e-18 wuc = -5.470739127e-17 puc = 4.402727758e-22
+ ud = 0.0
+ up = 0.0
+ lp = 1.0
+ eu = 1.67
+ vtl = 0.0
+ xn = 3.0
+ vsat = 1.943936016e+05 lvsat = 4.511903282e-02 wvsat = 5.602823304e-01 pvsat = -4.509026131e-6
+ a0 = 1.618382908e+00 la0 = -1.641497290e-07 wa0 = -2.038390164e-06 pa0 = 1.640450540e-11
+ ags = 2.847666745e-01 lags = -1.539770693e-07 wags = -1.912067388e-06 pags = 1.538788812e-11
+ a1 = 0.0
+ a2 = 9.848959663e-01 la2 = 1.214733870e-07 wa2 = 1.508440853e-06 pa2 = -1.213959259e-11
+ b0 = 0.0
+ b1 = 0.0
+ keta = -1.635496691e-02 lketa = 2.563928496e-08 wketa = 3.183853339e-07 pketa = -2.562293530e-12
+ dwg = -5.722e-9
+ dwb = -1.7864e-8
+ pclm = 1.175530136e-01 lpclm = -3.385163897e-07 wpclm = -4.203652868e-06 ppclm = 3.383005246e-11
+ pdiblc1 = 0.39
+ pdiblc2 = 3.389891695e-03 lpdiblc2 = 1.913018123e-09 wpdiblc2 = 2.375561232e-08 ppdiblc2 = -1.911798230e-13
+ pdiblcb = -1.467140768e-04 lpdiblcb = 4.101953961e-10 wpdiblcb = 5.093753525e-09 ppdiblcb = -4.099338227e-14
+ drout = 0.56
+ pscbe1 = 7.505148629e+08 lpscbe1 = -3.251086178e+01 wpscbe1 = -4.037156886e+02 ppscbe1 = 3.249013026e-3
+ pscbe2 = 9.463149641e-09 lpscbe2 = 3.367419162e-16 wpscbe2 = 4.181617684e-15 ppscbe2 = -3.365271826e-20
+ pvag = 0.0
+ delta = 0.01
+ fprout = 0.0
+ pdits = 0.0
+ pditsl = 0.0
+ pditsd = 0.0
+ lambda = 0.0
+ lc = 5.0e-9
* Parameters FOR Asymmetric AND Bias-Dependent RDS Model
+ rdsw = 531.92
+ rsw = 0.0
+ rdw = 0.0
+ rdswmin = 0.0
+ rdwmin = 0.0
+ rswmin = 0.0
+ prwb = -0.32348
+ prwg = 0.02
+ wr = 1.0
* Impact Ionization Current Model Parameters
+ alpha0 = 1.0e-10
+ alpha1 = 1.0e-10
+ beta0 = 4.831940178e+00 lbeta0 = -3.182981755e-07 wbeta0 = -3.952585692e-06 pbeta0 = 3.180952032e-11
* Gidl Induced Drain Leakage Model Parameters
+ agidl = 1.034218799e-10 lagidl = -2.753851915e-17 wagidl = -3.419697791e-16 pagidl = 2.752095839e-21
+ bgidl = 1.142788057e+09 lbgidl = 9.380923379e+01 wbgidl = 1.164910966e+03 pbgidl = -9.374941352e-3
+ cgidl = 300.0
+ egidl = 0.1
* Gate Dielectric Tunneling Current Model Parameters
+ toxref = 4.23e-9
+ dlcig = 0.0
+ aigbacc = 0.43
+ bigbacc = 0.054
+ cigbacc = 0.075
+ nigbacc = 1.0
+ aigbinv = 0.35
+ bigbinv = 0.03
+ cigbinv = 0.006
+ eigbinv = 1.1
+ nigbinv = 3.0
+ aigc = 0.43
+ bigc = 0.054
+ cigc = 0.075
+ aigsd = 0.43
+ bigsd = 0.054
+ cigsd = 0.075
+ nigc = 1.0
+ poxedge = 1.0
+ pigcd = 1.0
+ ntox = 1.0
+ vfbsdoff = 0.0
* Charge AND Capacitance Model Parameters
+ dlc = -1.46875e-8
+ dwc = 2.252e-8
+ xpart = 0.0
+ cgso = 6.9684e-11
+ cgdo = 6.9684e-11
+ cgbo = 0.0
+ cgdl = 8.82664e-12
+ cgsl = 8.82664e-12
+ clc = 1.0e-7
+ cle = 0.6
+ cf = 1.2e-11
+ ckappas = 0.6
+ vfbcv = -0.1446893
+ acde = 0.552
+ moin = 14.504
+ noff = 4.0
+ voffcv = -0.1375
* High-Speed/RF Model Parameters
+ xrcrg1 = 12.0
+ xrcrg2 = 1.0
+ rbpb = 50.0
+ rbpd = 50.0
+ rbps = 50.0
+ rbdb = 50.0
+ rbsb = 50.0
+ gbmin = 1.0e-12
* Flicker AND Thermal Noise Model Parameters
+ ef = 0.88
+ noia = 1.2e+41
+ noib = 2.0e+25
+ noic = 0.0
+ em = 41000000.0
+ ntnoi = 1.0
+ lintnoi = -6.0e-8
+ af = 1.0
+ kf = 0.0
+ tnoia = 1.5
+ tnoib = 3.5
+ rnoia = 0.577
+ rnoib = 0.37
* Layout-Dependent Parasitics Model Parameters
+ xl = 0.0
+ xw = 0.0
+ dmcg = 0.0
+ dmdg = 0.0
+ dmcgt = 0.0
+ xgw = 0.0
+ xgl = 0.0
+ ngcon = 1.0
* Asymmetric Source/Drain Junction Diode Model Parameters
+ jss = 2.17e-5
+ jsws = 8.2e-10
+ ijthsfwd = 0.1
+ ijthsrev = 0.1
+ bvs = 12.8
+ xjbvs = 1.0
+ pbs = 0.6587
+ cjs = 0.000792710451
+ mjs = 0.34629
+ pbsws = 0.7418
+ cjsws = 1.01401195e-10
+ mjsws = 0.26859
+ pbswgs = 1.3925
+ cjswgs = 2.7096997e-10
+ mjswgs = 0.70393
* Temperature Dependence Parameters
+ tnom = 30.0
+ kt1 = -4.425028544e-01 lkt1 = 6.541668973e-09 wkt1 = 8.123360161e-08 pkt1 = -6.537497482e-13
+ kt2 = -3.814100535e-02 lkt2 = 1.448642572e-09 wkt2 = 1.798905662e-08 pkt2 = -1.447718802e-13
+ at = 1.981266456e+04 lat = -1.594478665e-01 wat = -1.980003042e+00 pat = 1.593461898e-5
+ ute = -3.004781078e-01 lute = -1.463827505e-09 wute = -1.817762116e-08 pute = 1.462894051e-13
+ ua1 = 2.227208011e-09 lua1 = -1.256097626e-16 wua1 = -1.559805832e-15 pua1 = 1.255296638e-20
+ ub1 = -8.067398249e-19 lub1 = 1.058268324e-25 wub1 = 1.314143956e-24 pub1 = -1.057593488e-29
+ uc1 = 1.211383402e-10 luc1 = -1.036827199e-17 wuc1 = -1.287518644e-16 puc1 = 1.036166035e-21
+ kt1l = 0.0
+ prt = 0.0
+ tvoff = 0.0
+ njs = 1.2556
+ tpb = 0.0019551
+ tcj = 0.0012407
+ tpbsw = 0.00014242
+ tcjsw = 0.0
+ tpbswg = 0.0
+ tcjswg = 2.0e-12
+ xtis = 2.0
+ tvfbsdoff = 0.0
* DW AND DL Parameters
+ ll = 0.0
+ wl = 0.0
+ lln = 1.0
+ wln = 1.0
+ lw = 0.0
+ ww = 0.0
+ lwn = 1.0
+ wwn = 1.0
+ lwl = 0.0
+ wwl = 0.0
+ llc = 0.0
+ wlc = 0.0
+ lwc = 0.0
+ wwc = 0.0
+ lwlc = 0.0
+ wwlc = 0.0
* Stress Parameters
+ saref = 3.0e-6
+ sbref = 3.0e-6
+ kvth0 = 2.65e-8
+ lkvth0 = 0.0
+ wkvth0 = 2.5e-7
+ pkvth0 = 0.0
+ llodvth = 0.0
+ wlodvth = 1.0
+ wlod = 0.0
+ stk2 = 0.0
+ lodk2 = 1.0
+ lodeta0 = 1.0
+ ku0 = 4.5e-8
+ lku0 = 0.0
+ wku0 = 2.5e-7
+ pku0 = 0.0
+ tku0 = 0.0
+ llodku0 = 0.0
+ wlodku0 = 1.0
+ kvsat = 0.4
+ steta0 = 0.0
* Well Proximity Effect Parameters
.model sky130_fd_pr__pfet_01v8_hvt__model.3 pmos
* Model Flag Parameters
+ lmin = 2.0e-06 lmax = 4.0e-06 wmin = 7.0e-06 wmax = 0.0001
+ level = 54.0
+ version = 4.5
+ binunit = 2.0
+ mobmod = 0.0
+ capmod = 2.0
+ igcmod = 0.0
+ igbmod = 0.0
+ geomod = 0.0
+ diomod = 1.0
+ rdsmod = 0.0
+ rbodymod = 1.0
+ rgatemod = 0.0
+ permod = 1.0
+ acnqsmod = 0.0
+ trnqsmod = 0.0
+ fnoimod = 1.0
+ tnoimod = 1.0
+ tempmod = 0.0
* Process Parameters
+ toxe = {4.384395e-09+sky130_fd_pr__pfet_01v8_hvt__toxe_slope_spectre*(4.23e-09*1.0365*(sky130_fd_pr__pfet_01v8_hvt__toxe_slope/sqrt(l*w*mult)))}
+ toxm = 4.23e-9
+ dtox = 0.0
+ epsrox = 3.9
+ xj = 1.5e-7
+ ngate = 1.0e+23
+ ndep = 1.7e+17
+ nsd = 1.0e+20
+ rsh = 1.0
+ rshg = 0.1
* Basic Model Parameters
+ wint = 3.1884e-8
+ lint = -2.38875e-8
+ vth0 = {-1.101852341e+00+sky130_fd_pr__pfet_01v8_hvt__vth0_slope_spectre*(sky130_fd_pr__pfet_01v8_hvt__vth0_slope/sqrt(l*w*mult))} lvth0 = 2.536088631e-08 wvth0 = 3.472044050e-08 pvth0 = 4.754127859e-14
+ k1 = 4.496343333e-01 lk1 = -5.079612074e-08 wk1 = -6.011106403e-07 pk1 = 2.225493746e-12
+ k2 = 3.333508785e-02 lk2 = 2.130114307e-08 wk2 = 2.351972778e-07 pk2 = -8.595745513e-13
+ k3 = -13.778
+ k3b = 2.0
+ w0 = 0.0
+ dvt0 = 4.05
+ dvt1 = 0.3
+ dvt2 = 0.03
+ dvt0w = -4.254
+ dvt1w = 1147200.0
+ dvt2w = -0.00896
+ dsub = 5.440048812e-01 ldsub = 6.474464217e-08 wdsub = 1.598491907e-06 pdsub = -6.470335581e-12
+ minv = 0.0
+ voffl = 0.0
+ lpe0 = 0.0
+ lpeb = 0.0
+ vbm = -3.0
+ dvtp0 = 0.0
+ dvtp1 = 0.0
+ phin = 0.0
+ cdsc = 0.0
+ cdscb = 0.0
+ cdscd = 0.0
+ cit = 1.0e-5
+ voff = {-1.687524048e-01+sky130_fd_pr__pfet_01v8_hvt__voff_slope_spectre*(sky130_fd_pr__pfet_01v8_hvt__voff_slope/sqrt(l*w*mult))} lvoff = 1.496609471e-09 wvoff = -3.655704093e-08 pvoff = 1.713512480e-13
+ nfactor = {1.695254432e+00+sky130_fd_pr__pfet_01v8_hvt__nfactor_slope_spectre*(sky130_fd_pr__pfet_01v8_hvt__nfactor_slope/sqrt(l*w*mult))} lnfactor = -3.717366399e-07 wnfactor = -3.352669920e-06 pnfactor = 1.171833515e-11
+ eta0 = 7.392900281e-02 leta0 = 2.457403065e-08 weta0 = 6.067125837e-07 peta0 = -2.455836029e-12
+ etab = -6.469265025e-02 letab = -2.148295762e-08 wetab = -5.303965355e-07 petab = 2.146925836e-12
+ u0 = 9.039325974e-03 lu0 = 1.201884170e-09 wu0 = 1.523964440e-08 pu0 = -5.709641761e-14
+ ua = -1.370214031e-10 lua = 3.283287903e-16 wua = 3.869086096e-15 pua = -1.431372229e-20
+ ub = 1.586658892e-19 lub = -3.154104611e-25 wub = -2.658227606e-24 pub = 9.128794454e-30
+ uc = -8.637304797e-11 luc = 3.303547075e-17 wuc = 1.275139958e-16 puc = -2.973183991e-22
+ ud = 0.0
+ up = 0.0
+ lp = 1.0
+ eu = 1.67
+ vtl = 0.0
+ xn = 3.0
+ vsat = 2.820211026e+05 lvsat = -3.095773749e-01 wvsat = -5.960304494e-01 pvsat = 1.714678307e-7
+ a0 = 1.280891365e+00 la0 = 1.201940104e-06 wa0 = 4.036225980e-06 pa0 = -8.184173961e-12
+ ags = -1.911761452e-02 lags = 1.076078159e-06 wags = 2.517674546e-06 pags = -2.542710533e-12
+ a1 = 0.0
+ a2 = 1.234945329e+00 la2 = -8.906701701e-07 wa2 = -3.016881706e-06 pa2 = 6.177894935e-12
+ b0 = 0.0
+ b1 = 0.0
+ keta = 3.624649252e-02 lketa = -1.872795875e-07 wketa = -6.191571299e-07 pketa = 1.232667416e-12
+ dwg = -5.722e-9
+ dwb = -1.7864e-8
+ pclm = -5.810850624e-01 lpclm = 2.489413349e-06 wpclm = 8.588403566e-06 ppclm = -1.794931377e-11
+ pdiblc1 = 0.39
+ pdiblc2 = 7.309897997e-03 lpdiblc2 = -1.395428538e-08 wpdiblc2 = -4.572389188e-08 ppdiblc2 = 9.005757717e-14
+ pdiblcb = 6.389588179e-04 lpdiblcb = -2.770031705e-09 wpdiblcb = -4.321034876e-09 ppdiblcb = -2.884437151e-15
+ drout = 0.56
+ pscbe1 = 6.835922188e+08 lpscbe1 = 2.383769442e+02 wpscbe1 = 8.074313771e+02 ppscbe1 = -1.653437788e-3
+ pscbe2 = 1.013508658e-08 lpscbe2 = -2.383107626e-15 wpscbe2 = -6.240959330e-15 ppscbe2 = 8.535528414e-21
+ pvag = 0.0
+ delta = 0.01
+ fprout = 0.0
+ pdits = 0.0
+ pditsl = 0.0
+ pditsd = 0.0
+ lambda = 0.0
+ lc = 5.0e-9
* Parameters FOR Asymmetric AND Bias-Dependent RDS Model
+ rdsw = 531.92
+ rsw = 0.0
+ rdw = 0.0
+ rdswmin = 0.0
+ rdwmin = 0.0
+ rswmin = 0.0
+ prwb = -0.32348
+ prwg = 0.02
+ wr = 1.0
* Impact Ionization Current Model Parameters
+ alpha0 = 1.0e-10
+ alpha1 = 1.0e-10
+ beta0 = 4.327591634e+00 lbeta0 = 1.723191250e-06 wbeta0 = -7.171089136e-06 pbeta0 = 4.483729809e-11
* Gidl Induced Drain Leakage Model Parameters
+ agidl = 4.367544253e-11 lagidl = 2.143016162e-16 wagidl = 9.896657686e-16 pagidl = -2.638065240e-21
+ bgidl = 1.335891581e+09 lbgidl = -6.878303823e+02 wbgidl = -2.329821933e+03 pbgidl = 4.770951108e-3
+ cgidl = 300.0
+ egidl = 0.1
* Gate Dielectric Tunneling Current Model Parameters
+ toxref = 4.23e-9
+ dlcig = 0.0
+ aigbacc = 0.43
+ bigbacc = 0.054
+ cigbacc = 0.075
+ nigbacc = 1.0
+ aigbinv = 0.35
+ bigbinv = 0.03
+ cigbinv = 0.006
+ eigbinv = 1.1
+ nigbinv = 3.0
+ aigc = 0.43
+ bigc = 0.054
+ cigc = 0.075
+ aigsd = 0.43
+ bigsd = 0.054
+ cigsd = 0.075
+ nigc = 1.0
+ poxedge = 1.0
+ pigcd = 1.0
+ ntox = 1.0
+ vfbsdoff = 0.0
* Charge AND Capacitance Model Parameters
+ dlc = -1.46875e-8
+ dwc = 2.252e-8
+ xpart = 0.0
+ cgso = 6.9684e-11
+ cgdo = 6.9684e-11
+ cgbo = 0.0
+ cgdl = 8.82664e-12
+ cgsl = 8.82664e-12
+ clc = 1.0e-7
+ cle = 0.6
+ cf = 1.2e-11
+ ckappas = 0.6
+ vfbcv = -0.1446893
+ acde = 0.552
+ moin = 14.504
+ noff = 4.0
+ voffcv = -0.1375
* High-Speed/RF Model Parameters
+ xrcrg1 = 12.0
+ xrcrg2 = 1.0
+ rbpb = 50.0
+ rbpd = 50.0
+ rbps = 50.0
+ rbdb = 50.0
+ rbsb = 50.0
+ gbmin = 1.0e-12
* Flicker AND Thermal Noise Model Parameters
+ ef = 0.88
+ noia = 1.2e+41
+ noib = 2.0e+25
+ noic = 0.0
+ em = 41000000.0
+ ntnoi = 1.0
+ lintnoi = -6.0e-8
+ af = 1.0
+ kf = 0.0
+ tnoia = 1.5
+ tnoib = 3.5
+ rnoia = 0.577
+ rnoib = 0.37
* Layout-Dependent Parasitics Model Parameters
+ xl = 0.0
+ xw = 0.0
+ dmcg = 0.0
+ dmdg = 0.0
+ dmcgt = 0.0
+ xgw = 0.0
+ xgl = 0.0
+ ngcon = 1.0
* Asymmetric Source/Drain Junction Diode Model Parameters
+ jss = 2.17e-5
+ jsws = 8.2e-10
+ ijthsfwd = 0.1
+ ijthsrev = 0.1
+ bvs = 12.8
+ xjbvs = 1.0
+ pbs = 0.6587
+ cjs = 0.000792710451
+ mjs = 0.34629
+ pbsws = 0.7418
+ cjsws = 1.01401195e-10
+ mjsws = 0.26859
+ pbswgs = 1.3925
+ cjswgs = 2.7096997e-10
+ mjswgs = 0.70393
* Temperature Dependence Parameters
+ tnom = 30.0
+ kt1 = -4.273730351e-01 lkt1 = -5.470043506e-08 wkt1 = -3.287598724e-07 pkt1 = 1.005811586e-12
+ kt2 = -3.541468677e-02 lkt2 = -9.586881614e-09 wkt2 = -1.042750029e-08 pkt2 = -2.974805152e-14
+ at = -3.215109905e+05 lat = 1.222153492e+00 wat = 5.269665788e+00 pat = -1.341040927e-5
+ ute = -2.934389274e-01 lute = -2.995684595e-08 wute = -9.682463222e-07 pute = 3.991953742e-12
+ ua1 = 1.924108124e-09 lua1 = 1.101270385e-15 wua1 = 7.570363599e-15 pua1 = -2.440390519e-20
+ ub1 = -5.635972638e-19 lub1 = -8.783595479e-25 wub1 = -5.156791224e-24 pub1 = 1.561695477e-29
+ uc1 = 8.381738267e-11 luc1 = 1.406985669e-16 wuc1 = 1.854302565e-15 puc1 = -6.990792106e-21
+ kt1l = 0.0
+ prt = 0.0
+ tvoff = 0.0
+ njs = 1.2556
+ tpb = 0.0019551
+ tcj = 0.0012407
+ tpbsw = 0.00014242
+ tcjsw = 0.0
+ tpbswg = 0.0
+ tcjswg = 2.0e-12
+ xtis = 2.0
+ tvfbsdoff = 0.0
* DW AND DL Parameters
+ ll = 0.0
+ wl = 0.0
+ lln = 1.0
+ wln = 1.0
+ lw = 0.0
+ ww = 0.0
+ lwn = 1.0
+ wwn = 1.0
+ lwl = 0.0
+ wwl = 0.0
+ llc = 0.0
+ wlc = 0.0
+ lwc = 0.0
+ wwc = 0.0
+ lwlc = 0.0
+ wwlc = 0.0
* Stress Parameters
+ saref = 3.0e-6
+ sbref = 3.0e-6
+ kvth0 = 2.65e-8
+ lkvth0 = 0.0
+ wkvth0 = 2.5e-7
+ pkvth0 = 0.0
+ llodvth = 0.0
+ wlodvth = 1.0
+ wlod = 0.0
+ stk2 = 0.0
+ lodk2 = 1.0
+ lodeta0 = 1.0
+ ku0 = 4.5e-8
+ lku0 = 0.0
+ wku0 = 2.5e-7
+ pku0 = 0.0
+ tku0 = 0.0
+ llodku0 = 0.0
+ wlodku0 = 1.0
+ kvsat = 0.4
+ steta0 = 0.0
* Well Proximity Effect Parameters
.model sky130_fd_pr__pfet_01v8_hvt__model.4 pmos
* Model Flag Parameters
+ lmin = 1.0e-06 lmax = 2.0e-06 wmin = 7.0e-06 wmax = 0.0001
+ level = 54.0
+ version = 4.5
+ binunit = 2.0
+ mobmod = 0.0
+ capmod = 2.0
+ igcmod = 0.0
+ igbmod = 0.0
+ geomod = 0.0
+ diomod = 1.0
+ rdsmod = 0.0
+ rbodymod = 1.0
+ rgatemod = 0.0
+ permod = 1.0
+ acnqsmod = 0.0
+ trnqsmod = 0.0
+ fnoimod = 1.0
+ tnoimod = 1.0
+ tempmod = 0.0
* Process Parameters
+ toxe = {4.384395e-09+sky130_fd_pr__pfet_01v8_hvt__toxe_slope_spectre*(4.23e-09*1.0365*(sky130_fd_pr__pfet_01v8_hvt__toxe_slope/sqrt(l*w*mult)))}
+ toxm = 4.23e-9
+ dtox = 0.0
+ epsrox = 3.9
+ xj = 1.5e-7
+ ngate = 1.0e+23
+ ndep = 1.7e+17
+ nsd = 1.0e+20
+ rsh = 1.0
+ rshg = 0.1
* Basic Model Parameters
+ wint = 3.1884e-8
+ lint = -2.38875e-8
+ vth0 = {-1.090247229e+00+sky130_fd_pr__pfet_01v8_hvt__vth0_slope_spectre*(sky130_fd_pr__pfet_01v8_hvt__vth0_slope/sqrt(l*w*mult))} lvth0 = 1.596228745e-09 wvth0 = 1.358362197e-07 pvth0 = -1.595210862e-13
+ k1 = 4.209018192e-01 lk1 = 8.041603203e-09 wk1 = 8.781247586e-07 pk1 = -8.036475234e-13
+ k2 = 4.452504818e-02 lk2 = -1.613377947e-09 wk2 = -2.632996099e-07 pk2 = 1.612349128e-13
+ k3 = -13.778
+ k3b = 2.0
+ w0 = 0.0
+ dvt0 = 4.05
+ dvt1 = 0.3
+ dvt2 = 0.03
+ dvt0w = -4.254
+ dvt1w = 1147200.0
+ dvt2w = -0.00896
+ dsub = 6.263746314e-01 ldsub = -1.039300731e-07 wdsub = -6.633230560e-06 pdsub = 1.038637989e-11
+ minv = 0.0
+ voffl = 0.0
+ lpe0 = 0.0
+ lpeb = 0.0
+ vbm = -3.0
+ dvtp0 = 0.0
+ dvtp1 = 0.0
+ phin = 0.0
+ cdsc = 0.0
+ cdscb = 0.0
+ cdscd = 0.0
+ cit = 1.0e-5
+ voff = {-1.699701984e-01+sky130_fd_pr__pfet_01v8_hvt__voff_slope_spectre*(sky130_fd_pr__pfet_01v8_hvt__voff_slope/sqrt(l*w*mult))} lvoff = 3.990376632e-09 wvoff = 2.418595101e-07 pvoff = -3.987832048e-13
+ nfactor = {1.492059352e+00+sky130_fd_pr__pfet_01v8_hvt__nfactor_slope_spectre*(sky130_fd_pr__pfet_01v8_hvt__nfactor_slope/sqrt(l*w*mult))} lnfactor = 4.436116644e-08 wnfactor = 4.534731272e-06 pnfactor = -4.433287821e-12
+ eta0 = 1.030653997e-01 leta0 = -3.509075451e-08 weta0 = -2.305069136e-06 peta0 = 3.506837783e-12
+ etab = -7.522260139e-02 letab = 8.001307021e-11 wetab = 5.219271041e-07 petab = -7.996204747e-15
+ u0 = 9.698019529e-03 lu0 = -1.469720240e-10 wu0 = -1.981510912e-08 pu0 = 1.468783029e-14
+ ua = 1.316120392e-11 lua = 2.078860224e-17 wua = -2.106271408e-15 pua = -2.077534576e-21
+ ub = 3.208121026e-20 lub = -5.619352006e-26 wub = -9.426945048e-25 pub = 5.615768658e-30
+ uc = -6.955109697e-11 luc = -1.412099948e-18 wuc = -8.659075066e-17 puc = 1.411199480e-22
+ ud = 0.0
+ up = 0.0
+ lp = 1.0
+ eu = 1.67
+ vtl = 0.0
+ xn = 3.0
+ vsat = 1.333259606e+05 lvsat = -5.083180582e-03 wvsat = -7.603678806e-01 pvsat = 5.079939140e-7
+ a0 = 1.859769241e+00 la0 = 1.652845994e-08 wa0 = 8.462358917e-07 pa0 = -1.651792007e-12
+ ags = 5.247565009e-01 lags = -3.765365796e-08 wags = -5.616067375e-07 pags = 3.762964697e-12
+ a1 = 0.0
+ a2 = 0.8
+ b0 = 0.0
+ b1 = 0.0
+ keta = -5.397700691e-02 lketa = -2.522160957e-09 wketa = -1.402899920e-07 pketa = 2.520552626e-13
+ dwg = -5.722e-9
+ dwb = -1.7864e-8
+ pclm = 6.434070907e-01 lpclm = -1.807107033e-08 wpclm = -1.058783478e-06 ppclm = 1.805954677e-12
+ pdiblc1 = 3.864485001e-01 lpdiblc1 = 7.272672798e-09 wpdiblc1 = 3.549235223e-07 ppdiblc1 = -7.268035160e-13