* Copyright 2020 The SkyWater PDK Authors
*
* Licensed under the Apache License, Version 2.0 (the "License");
* you may not use this file except in compliance with the License.
* You may obtain a copy of the License at
*
*     https://www.apache.org/licenses/LICENSE-2.0
*
* Unless required by applicable law or agreed to in writing, software
* distributed under the License is distributed on an "AS IS" BASIS,
* WITHOUT WARRANTIES OR CONDITIONS OF ANY KIND, either express or implied.
* See the License for the specific language governing permissions and
* limitations under the License.

* SKY130 Spice File.
.param sky130_fd_pr__pfet_01v8_hvt__toxe_slope_spectre = 0.0
.param sky130_fd_pr__pfet_01v8_hvt__vth0_slope_spectre = 0.0
.param sky130_fd_pr__pfet_01v8_hvt__voff_slope_spectre = 0.0
.param sky130_fd_pr__pfet_01v8_hvt__nfactor_slope_spectre = 0.0
* statistics {
*   process {
*   }
*   mismatch {
*     vary sky130_fd_pr__pfet_01v8_hvt__toxe_slope_spectre dist=gauss std = 1.0
*     vary sky130_fd_pr__pfet_01v8_hvt__vth0_slope_spectre dist=gauss std = 1.0
*     vary sky130_fd_pr__pfet_01v8_hvt__voff_slope_spectre dist=gauss std = 1.0
*     vary sky130_fd_pr__pfet_01v8_hvt__nfactor_slope_spectre dist=gauss std = 1.0
*   }
* }
.subckt  sky130_fd_pr__pfet_01v8_hvt d g s b
+ 
.param  l = 1 w = 1 ad = 0 as = 0 pd = 0 ps = 0 nrd = 0 nrs = 0 sa = 0 sb = 0 sd = 0 mult = 1 nf = 1.0
msky130_fd_pr__pfet_01v8_hvt d g s b sky130_fd_pr__pfet_01v8_hvt__model l = {l} w = {w} ad = {ad} as = {as} pd = {pd} ps = {ps} nrd = {nrd} nrs = {nrs} sa = {sa} sb = {sb} sd = {sd} nf = {nf}
.model sky130_fd_pr__pfet_01v8_hvt__model.0 pmos
* Model Flag Parameters
+ lmin = 2.0e-05 lmax = 0.0001 wmin = 7.0e-06 wmax = 0.0001
+ level = 54.0
+ version = 4.5
+ binunit = 2.0
+ mobmod = 0.0
+ capmod = 2.0
+ igcmod = 0.0
+ igbmod = 0.0
+ geomod = 0.0
+ diomod = 1.0
+ rdsmod = 0.0
+ rbodymod = 1.0
+ rgatemod = 0.0
+ permod = 1.0
+ acnqsmod = 0.0
+ trnqsmod = 0.0
+ fnoimod = 1.0
+ tnoimod = 1.0
+ tempmod = 0.0
* Process Parameters
+ toxe = {4.075605e-09+sky130_fd_pr__pfet_01v8_hvt__toxe_slope_spectre*(4.23e-09*0.9635*(sky130_fd_pr__pfet_01v8_hvt__toxe_slope/sqrt(l*w*mult)))}
+ toxm = 4.23e-9
+ dtox = 0.0
+ epsrox = 3.9
+ xj = 1.5e-7
+ ngate = 1.0e+23
+ ndep = 1.7e+17
+ nsd = 1.0e+20
+ rsh = 1.0
+ rshg = 0.1
* Basic Model Parameters
+ wint = -1.3156e-8
+ lint = 3.675e-10
+ vth0 = {-1.1097881+sky130_fd_pr__pfet_01v8_hvt__vth0_slope_spectre*(sky130_fd_pr__pfet_01v8_hvt__vth0_slope/sqrt(l*w*mult))}
+ k1 = 0.43657182
+ k2 = 0.029080988
+ k3 = -13.778
+ k3b = 2.0
+ w0 = 0.0
+ dvt0 = 4.05
+ dvt1 = 0.3
+ dvt2 = 0.03
+ dvt0w = -4.254
+ dvt1w = 1147200.0
+ dvt2w = -0.00896
+ dsub = 0.56
+ minv = 0.0
+ voffl = 0.0
+ lpe0 = 0.0
+ lpeb = 0.0
+ vbm = -3.0
+ dvtp0 = 0.0
+ dvtp1 = 0.0
+ phin = 0.0
+ cdsc = 0.0
+ cdscb = 0.0
+ cdscd = 0.0
+ cit = 1.0e-5
+ voff = {-0.23239888+sky130_fd_pr__pfet_01v8_hvt__voff_slope_spectre*(sky130_fd_pr__pfet_01v8_hvt__voff_slope/sqrt(l*w*mult))}
+ nfactor = {1.3940676+sky130_fd_pr__pfet_01v8_hvt__nfactor_slope_spectre*(sky130_fd_pr__pfet_01v8_hvt__nfactor_slope/sqrt(l*w*mult))}
+ eta0 = 0.08
+ etab = -0.07
+ u0 = 0.014934398
+ ua = -5.7327697e-10
+ ub = 1.80325173e-18
+ uc = -7.7670696e-11
+ ud = 0.0
+ up = 0.0
+ lp = 1.0
+ eu = 1.67
+ vtl = 0.0
+ xn = 3.0
+ vsat = 200000.0
+ a0 = 1.477815
+ ags = 0.4141498
+ a1 = 0.0
+ a2 = 1.0
+ b0 = 0.0
+ b1 = 0.0
+ keta = -0.013169082
+ dwg = -5.722e-9
+ dwb = -1.7864e-8
+ pclm = 0.075489662
+ pdiblc1 = 0.39
+ pdiblc2 = 0.0036275994
+ pdiblcb = -9.5744039e-5
+ drout = 0.56
+ pscbe1 = 746475130.0
+ pscbe2 = 9.5049925e-9
+ pvag = 0.0
+ delta = 0.01
+ fprout = 0.0
+ pdits = 0.0
+ pditsl = 0.0
+ pditsd = 0.0
+ lambda = 0.0
+ lc = 5.0e-9
* Parameters FOR Asymmetric AND Bias-Dependent RDS Model
+ rdsw = 531.92
+ rsw = 0.0
+ rdw = 0.0
+ rdswmin = 0.0
+ rdwmin = 0.0
+ rswmin = 0.0
+ prwb = -0.32348
+ prwg = 0.02
+ wr = 1.0
* Impact Ionization Current Model Parameters
+ alpha0 = 1.0e-10
+ alpha1 = 1.0e-10
+ beta0 = 4.7923891
* Gidl Induced Drain Leakage Model Parameters
+ agidl = 1.0e-10
+ bgidl = 1154444600.0
+ cgidl = 300.0
+ egidl = 0.1
* Gate Dielectric Tunneling Current Model Parameters
+ toxref = 4.23e-9
+ dlcig = 0.0
+ aigbacc = 0.43
+ bigbacc = 0.054
+ cigbacc = 0.075
+ nigbacc = 1.0
+ aigbinv = 0.35
+ bigbinv = 0.03
+ cigbinv = 0.006
+ eigbinv = 1.1
+ nigbinv = 3.0
+ aigc = 0.43
+ bigc = 0.054
+ cigc = 0.075
+ aigsd = 0.43
+ bigsd = 0.054
+ cigsd = 0.075
+ nigc = 1.0
+ poxedge = 1.0
+ pigcd = 1.0
+ ntox = 1.0
+ vfbsdoff = 0.0
* Charge AND Capacitance Model Parameters
+ dlc = 9.5675e-9
+ dwc = -2.252e-8
+ xpart = 0.0
+ cgso = 5.47296e-11
+ cgdo = 5.47296e-11
+ cgbo = 0.0
+ cgdl = 6.932416e-12
+ cgsl = 6.932416e-12
+ clc = 1.0e-7
+ cle = 0.6
+ cf = 1.2e-11
+ ckappas = 0.6
+ vfbcv = -0.1446893
+ acde = 0.552
+ moin = 14.504
+ noff = 4.0
+ voffcv = -0.1375
* High-Speed/RF Model Parameters
+ xrcrg1 = 12.0
+ xrcrg2 = 1.0
+ rbpb = 50.0
+ rbpd = 50.0
+ rbps = 50.0
+ rbdb = 50.0
+ rbsb = 50.0
+ gbmin = 1.0e-12
* Flicker AND Thermal Noise Model Parameters
+ ef = 0.88
+ noia = 1.2e+41
+ noib = 2.0e+25
+ noic = 0.0
+ em = 41000000.0
+ ntnoi = 1.0
+ lintnoi = -6.0e-8
+ af = 1.0
+ kf = 0.0
+ tnoia = 1.5
+ tnoib = 3.5
+ rnoia = 0.577
+ rnoib = 0.37
* Layout-Dependent Parasitics Model Parameters
+ xl = 0.0
+ xw = 0.0
+ dmcg = 0.0
+ dmdg = 0.0
+ dmcgt = 0.0
+ xgw = 0.0
+ xgl = 0.0
+ ngcon = 1.0
* Asymmetric Source/Drain Junction Diode Model Parameters
+ jss = 2.17e-5
+ jsws = 8.2e-10
+ ijthsfwd = 0.1
+ ijthsrev = 0.1
+ bvs = 12.8
+ xjbvs = 1.0
+ pbs = 0.6587
+ cjs = 0.0006938237703
+ mjs = 0.34629
+ pbsws = 0.7418
+ cjsws = 8.8756087e-11
+ mjsws = 0.26859
+ pbswgs = 1.3925
+ cjswgs = 2.37179002e-10
+ mjswgs = 0.70393
* Temperature Dependence Parameters
+ tnom = 30.0
+ kt1 = -0.44169
+ kt2 = -0.037961
+ at = 0.0
+ ute = -0.30066
+ ua1 = 2.2116e-9
+ ub1 = -7.9359e-19
+ uc1 = 1.1985e-10
+ kt1l = 0.0
+ prt = 0.0
+ tvoff = 0.0
+ njs = 1.2556
+ tpb = 0.0019551
+ tcj = 0.0012407
+ tpbsw = 0.00014242
+ tcjsw = 0.0
+ tpbswg = 0.0
+ tcjswg = 2.0e-12
+ xtis = 2.0
+ tvfbsdoff = 0.0
* DW AND DL Parameters
+ ll = 0.0
+ wl = 0.0
+ lln = 1.0
+ wln = 1.0
+ lw = 0.0
+ ww = 0.0
+ lwn = 1.0
+ wwn = 1.0
+ lwl = 0.0
+ wwl = 0.0
+ llc = 0.0
+ wlc = 0.0
+ lwc = 0.0
+ wwc = 0.0
+ lwlc = 0.0
+ wwlc = 0.0
* Stress Parameters
+ saref = 3.0e-6
+ sbref = 3.0e-6
+ kvth0 = 2.65e-8
+ lkvth0 = 0.0
+ wkvth0 = 2.5e-7
+ pkvth0 = 0.0
+ llodvth = 0.0
+ wlodvth = 1.0
+ wlod = 0.0
+ stk2 = 0.0
+ lodk2 = 1.0
+ lodeta0 = 1.0
+ ku0 = 4.5e-8
+ lku0 = 0.0
+ wku0 = 2.5e-7
+ pku0 = 0.0
+ tku0 = 0.0
+ llodku0 = 0.0
+ wlodku0 = 1.0
+ kvsat = 0.4
+ steta0 = 0.0
* Well Proximity Effect Parameters
.model sky130_fd_pr__pfet_01v8_hvt__model.1 pmos
* Model Flag Parameters
+ lmin = 8.0e-06 lmax = 2.0e-05 wmin = 7.0e-06 wmax = 0.0001
+ level = 54.0
+ version = 4.5
+ binunit = 2.0
+ mobmod = 0.0
+ capmod = 2.0
+ igcmod = 0.0
+ igbmod = 0.0
+ geomod = 0.0
+ diomod = 1.0
+ rdsmod = 0.0
+ rbodymod = 1.0
+ rgatemod = 0.0
+ permod = 1.0
+ acnqsmod = 0.0
+ trnqsmod = 0.0
+ fnoimod = 1.0
+ tnoimod = 1.0
+ tempmod = 0.0
* Process Parameters
+ toxe = {4.075605e-09+sky130_fd_pr__pfet_01v8_hvt__toxe_slope_spectre*(4.23e-09*0.9635*(sky130_fd_pr__pfet_01v8_hvt__toxe_slope/sqrt(l*w*mult)))}
+ toxm = 4.23e-9
+ dtox = 0.0
+ epsrox = 3.9
+ xj = 1.5e-7
+ ngate = 1.0e+23
+ ndep = 1.7e+17
+ nsd = 1.0e+20
+ rsh = 1.0
+ rshg = 0.1
* Basic Model Parameters
+ wint = -1.3156e-8
+ lint = 3.675e-10
+ vth0 = {-1.1097881+sky130_fd_pr__pfet_01v8_hvt__vth0_slope_spectre*(sky130_fd_pr__pfet_01v8_hvt__vth0_slope/sqrt(l*w*mult))}
+ k1 = 0.43657182
+ k2 = 0.029080988
+ k3 = -13.778
+ k3b = 2.0
+ w0 = 0.0
+ dvt0 = 4.05
+ dvt1 = 0.3
+ dvt2 = 0.03
+ dvt0w = -4.254
+ dvt1w = 1147200.0
+ dvt2w = -0.00896
+ dsub = 0.56
+ minv = 0.0
+ voffl = 0.0
+ lpe0 = 0.0
+ lpeb = 0.0
+ vbm = -3.0
+ dvtp0 = 0.0
+ dvtp1 = 0.0
+ phin = 0.0
+ cdsc = 0.0
+ cdscb = 0.0
+ cdscd = 0.0
+ cit = 1.0e-5
+ voff = {-0.23239888+sky130_fd_pr__pfet_01v8_hvt__voff_slope_spectre*(sky130_fd_pr__pfet_01v8_hvt__voff_slope/sqrt(l*w*mult))}
+ nfactor = {1.3940676+sky130_fd_pr__pfet_01v8_hvt__nfactor_slope_spectre*(sky130_fd_pr__pfet_01v8_hvt__nfactor_slope/sqrt(l*w*mult))}
+ eta0 = 0.08
+ etab = -0.07
+ u0 = 0.014934398
+ ua = -5.7327697e-10
+ ub = 1.80325173e-18
+ uc = -7.7670696e-11
+ ud = 0.0
+ up = 0.0
+ lp = 1.0
+ eu = 1.67
+ vtl = 0.0
+ xn = 3.0
+ vsat = 200000.0
+ a0 = 1.477815
+ ags = 0.4141498
+ a1 = 0.0
+ a2 = 1.0
+ b0 = 0.0
+ b1 = 0.0
+ keta = -0.013169082
+ dwg = -5.722e-9
+ dwb = -1.7864e-8
+ pclm = 0.075489662
+ pdiblc1 = 0.39
+ pdiblc2 = 0.0036275994
+ pdiblcb = -9.5744039e-5
+ drout = 0.56
+ pscbe1 = 746475130.0
+ pscbe2 = 9.5049925e-9
+ pvag = 0.0
+ delta = 0.01
+ fprout = 0.0
+ pdits = 0.0
+ pditsl = 0.0
+ pditsd = 0.0
+ lambda = 0.0
+ lc = 5.0e-9
* Parameters FOR Asymmetric AND Bias-Dependent RDS Model
+ rdsw = 531.92
+ rsw = 0.0
+ rdw = 0.0
+ rdswmin = 0.0
+ rdwmin = 0.0
+ rswmin = 0.0
+ prwb = -0.32348
+ prwg = 0.02
+ wr = 1.0
* Impact Ionization Current Model Parameters
+ alpha0 = 1.0e-10
+ alpha1 = 1.0e-10
+ beta0 = 4.7923891
* Gidl Induced Drain Leakage Model Parameters
+ agidl = 1.0e-10
+ bgidl = 1154444600.0
+ cgidl = 300.0
+ egidl = 0.1
* Gate Dielectric Tunneling Current Model Parameters
+ toxref = 4.23e-9
+ dlcig = 0.0
+ aigbacc = 0.43
+ bigbacc = 0.054
+ cigbacc = 0.075
+ nigbacc = 1.0
+ aigbinv = 0.35
+ bigbinv = 0.03
+ cigbinv = 0.006
+ eigbinv = 1.1
+ nigbinv = 3.0
+ aigc = 0.43
+ bigc = 0.054
+ cigc = 0.075
+ aigsd = 0.43
+ bigsd = 0.054
+ cigsd = 0.075
+ nigc = 1.0
+ poxedge = 1.0
+ pigcd = 1.0
+ ntox = 1.0
+ vfbsdoff = 0.0
* Charge AND Capacitance Model Parameters
+ dlc = 9.5675e-9
+ dwc = -2.252e-8
+ xpart = 0.0
+ cgso = 5.47296e-11
+ cgdo = 5.47296e-11
+ cgbo = 0.0
+ cgdl = 6.932416e-12
+ cgsl = 6.932416e-12
+ clc = 1.0e-7
+ cle = 0.6
+ cf = 1.2e-11
+ ckappas = 0.6
+ vfbcv = -0.1446893
+ acde = 0.552
+ moin = 14.504
+ noff = 4.0
+ voffcv = -0.1375
* High-Speed/RF Model Parameters
+ xrcrg1 = 12.0
+ xrcrg2 = 1.0
+ rbpb = 50.0
+ rbpd = 50.0
+ rbps = 50.0
+ rbdb = 50.0
+ rbsb = 50.0
+ gbmin = 1.0e-12
* Flicker AND Thermal Noise Model Parameters
+ ef = 0.88
+ noia = 1.2e+41
+ noib = 2.0e+25
+ noic = 0.0
+ em = 41000000.0
+ ntnoi = 1.0
+ lintnoi = -6.0e-8
+ af = 1.0
+ kf = 0.0
+ tnoia = 1.5
+ tnoib = 3.5
+ rnoia = 0.577
+ rnoib = 0.37
* Layout-Dependent Parasitics Model Parameters
+ xl = 0.0
+ xw = 0.0
+ dmcg = 0.0
+ dmdg = 0.0
+ dmcgt = 0.0
+ xgw = 0.0
+ xgl = 0.0
+ ngcon = 1.0
* Asymmetric Source/Drain Junction Diode Model Parameters
+ jss = 2.17e-5
+ jsws = 8.2e-10
+ ijthsfwd = 0.1
+ ijthsrev = 0.1
+ bvs = 12.8
+ xjbvs = 1.0
+ pbs = 0.6587
+ cjs = 0.0006938237703
+ mjs = 0.34629
+ pbsws = 0.7418
+ cjsws = 8.8756087e-11
+ mjsws = 0.26859
+ pbswgs = 1.3925
+ cjswgs = 2.37179002e-10
+ mjswgs = 0.70393
* Temperature Dependence Parameters
+ tnom = 30.0
+ kt1 = -0.44169
+ kt2 = -0.037961
+ at = 0.0
+ ute = -0.30066
+ ua1 = 2.2116e-9
+ ub1 = -7.9359e-19
+ uc1 = 1.1985e-10
+ kt1l = 0.0
+ prt = 0.0
+ tvoff = 0.0
+ njs = 1.2556
+ tpb = 0.0019551
+ tcj = 0.0012407
+ tpbsw = 0.00014242
+ tcjsw = 0.0
+ tpbswg = 0.0
+ tcjswg = 2.0e-12
+ xtis = 2.0
+ tvfbsdoff = 0.0
* DW AND DL Parameters
+ ll = 0.0
+ wl = 0.0
+ lln = 1.0
+ wln = 1.0
+ lw = 0.0
+ ww = 0.0
+ lwn = 1.0
+ wwn = 1.0
+ lwl = 0.0
+ wwl = 0.0
+ llc = 0.0
+ wlc = 0.0
+ lwc = 0.0
+ wwc = 0.0
+ lwlc = 0.0
+ wwlc = 0.0
* Stress Parameters
+ saref = 3.0e-6
+ sbref = 3.0e-6
+ kvth0 = 2.65e-8
+ lkvth0 = 0.0
+ wkvth0 = 2.5e-7
+ pkvth0 = 0.0
+ llodvth = 0.0
+ wlodvth = 1.0
+ wlod = 0.0
+ stk2 = 0.0
+ lodk2 = 1.0
+ lodeta0 = 1.0
+ ku0 = 4.5e-8
+ lku0 = 0.0
+ wku0 = 2.5e-7
+ pku0 = 0.0
+ tku0 = 0.0
+ llodku0 = 0.0
+ wlodku0 = 1.0
+ kvsat = 0.4
+ steta0 = 0.0
* Well Proximity Effect Parameters
.model sky130_fd_pr__pfet_01v8_hvt__model.2 pmos
* Model Flag Parameters
+ lmin = 4.0e-06 lmax = 8.0e-06 wmin = 7.0e-06 wmax = 0.0001
+ level = 54.0
+ version = 4.5
+ binunit = 2.0
+ mobmod = 0.0
+ capmod = 2.0
+ igcmod = 0.0
+ igbmod = 0.0
+ geomod = 0.0
+ diomod = 1.0
+ rdsmod = 0.0
+ rbodymod = 1.0
+ rgatemod = 0.0
+ permod = 1.0
+ acnqsmod = 0.0
+ trnqsmod = 0.0
+ fnoimod = 1.0
+ tnoimod = 1.0
+ tempmod = 0.0
* Process Parameters
+ toxe = {4.075605e-09+sky130_fd_pr__pfet_01v8_hvt__toxe_slope_spectre*(4.23e-09*0.9635*(sky130_fd_pr__pfet_01v8_hvt__toxe_slope/sqrt(l*w*mult)))}
+ toxm = 4.23e-9
+ dtox = 0.0
+ epsrox = 3.9
+ xj = 1.5e-7
+ ngate = 1.0e+23
+ ndep = 1.7e+17
+ nsd = 1.0e+20
+ rsh = 1.0
+ rshg = 0.1
* Basic Model Parameters
+ wint = -1.3156e-8
+ lint = 3.675e-10
+ vth0 = {-1.109098583e+00+sky130_fd_pr__pfet_01v8_hvt__vth0_slope_spectre*(sky130_fd_pr__pfet_01v8_hvt__vth0_slope/sqrt(l*w*mult))} lvth0 = -5.515630273e-09 wvth0 = -6.896985593e-08 pvth0 = 5.517081546e-13
+ k1 = 4.360518816e-01 lk1 = 4.159125175e-09 wk1 = 5.200752225e-08 pk1 = -4.160219524e-13
+ k2 = 2.942226684e-02 lk2 = -2.729979878e-09 wk2 = -3.413686370e-08 pk2 = 2.730698190e-13
+ k3 = -13.778
+ k3b = 2.0
+ w0 = 0.0
+ dvt0 = 4.05
+ dvt1 = 0.3
+ dvt2 = 0.03
+ dvt0w = -4.254
+ dvt1w = 1147200.0
+ dvt2w = -0.00896
+ dsub = 0.56
+ minv = 0.0
+ voffl = 0.0
+ lpe0 = 0.0
+ lpeb = 0.0
+ vbm = -3.0
+ dvtp0 = 0.0
+ dvtp1 = 0.0
+ phin = 0.0
+ cdsc = 0.0
+ cdscb = 0.0
+ cdscd = 0.0
+ cit = 1.0e-5
+ voff = {-2.322912521e-01+sky130_fd_pr__pfet_01v8_hvt__voff_slope_spectre*(sky130_fd_pr__pfet_01v8_hvt__voff_slope/sqrt(l*w*mult))} lvoff = -8.609437151e-10 wvoff = -1.076561717e-08 pvoff = 8.611702466e-14
+ nfactor = {1.392604281e+00+sky130_fd_pr__pfet_01v8_hvt__nfactor_slope_spectre*(sky130_fd_pr__pfet_01v8_hvt__nfactor_slope/sqrt(l*w*mult))} lnfactor = 1.170547974e-08 wnfactor = 1.463704439e-07 pnfactor = -1.170855969e-12
+ eta0 = 0.08
+ etab = -0.07
+ u0 = 1.492091026e-02 lu0 = 1.078919906e-10 wu0 = 1.349128690e-09 pu0 = -1.079203791e-14
+ ua = -5.709003964e-10 lua = -1.901084234e-17 wua = -2.377198964e-16 pua = 1.901584447e-21
+ ub = 1.796796757e-18 lub = 5.163503919e-26 wub = 6.456671382e-25 pub = -5.164862540e-30
+ uc = -7.712280941e-11 luc = -4.382690050e-18 wuc = -5.480307532e-17 puc = 4.383843223e-22
+ ud = 0.0
+ up = 0.0
+ lp = 1.0
+ eu = 1.67
+ vtl = 0.0
+ xn = 3.0
+ vsat = 1.943888537e+05 lvsat = 4.488504638e-02 wvsat = 5.612622726e-01 pvsat = -4.489685653e-6
+ a0 = 1.500781002e+00 la0 = -1.837111358e-07 wa0 = -2.297204479e-06 pa0 = 1.837594739e-11
+ ags = 4.342779995e-01 lags = -1.610108014e-07 wags = -2.013349559e-06 pags = 1.610531666e-11
+ a1 = 0.0
+ a2 = 9.848831835e-01 la2 = 1.208434283e-07 wa2 = 1.511079139e-06 pa2 = -1.208752247e-11
+ b0 = 0.0
+ b1 = 0.0
+ keta = -1.635766497e-02 lketa = 2.550632012e-08 wketa = 3.189421946e-07 pketa = -2.551303134e-12
+ dwg = -5.722e-9
+ dwb = -1.7864e-8
+ pclm = 1.175886361e-01 lpclm = -3.367608502e-07 wpclm = -4.211005121e-06 ppclm = 3.368494588e-11
+ pdiblc1 = 0.39
+ pdiblc2 = 3.389690386e-03 lpdiblc2 = 1.903097248e-09 wpdiblc2 = 2.379716125e-08 ppdiblc2 = -1.903597991e-13
+ pdiblcb = -1.467572422e-04 lpdiblcb = 4.080681306e-10 wpdiblcb = 5.102662576e-09 ppdiblcb = -4.081755015e-14
+ drout = 0.56
+ pscbe1 = 7.505182841e+08 lpscbe1 = -3.234226108e+01 wpscbe1 = -4.044217934e+02 ppscbe1 = 3.235077097e-3
+ pscbe2 = 9.463114205e-09 lpscbe2 = 3.349955791e-16 wpscbe2 = 4.188931397e-15 ppscbe2 = -3.350837231e-20
+ pvag = 0.0
+ delta = 0.01
+ fprout = 0.0
+ pdits = 0.0
+ pditsl = 0.0
+ pditsd = 0.0
+ lambda = 0.0
+ lc = 5.0e-9
* Parameters FOR Asymmetric AND Bias-Dependent RDS Model
+ rdsw = 531.92
+ rsw = 0.0
+ rdw = 0.0
+ rdswmin = 0.0
+ rdwmin = 0.0
+ rswmin = 0.0
+ prwb = -0.32348
+ prwg = 0.02
+ wr = 1.0
* Impact Ionization Current Model Parameters
+ alpha0 = 1.0e-10
+ alpha1 = 1.0e-10
+ beta0 = 4.831973673e+00 lbeta0 = -3.166474873e-07 wbeta0 = -3.959498824e-06 pbeta0 = 3.167308036e-11
* Gidl Induced Drain Leakage Model Parameters
+ agidl = 1.034247778e-10 lagidl = -2.739570492e-17 wagidl = -3.425678894e-16 pagidl = 2.740291328e-21
+ bgidl = 1.142778186e+09 lbgidl = 9.332274090e+01 wbgidl = 1.166948413e+03 pbgidl = -9.334729598e-3
+ cgidl = 300.0
+ egidl = 0.1
* Gate Dielectric Tunneling Current Model Parameters
+ toxref = 4.23e-9
+ dlcig = 0.0
+ aigbacc = 0.43
+ bigbacc = 0.054
+ cigbacc = 0.075
+ nigbacc = 1.0
+ aigbinv = 0.35
+ bigbinv = 0.03
+ cigbinv = 0.006
+ eigbinv = 1.1
+ nigbinv = 3.0
+ aigc = 0.43
+ bigc = 0.054
+ cigc = 0.075
+ aigsd = 0.43
+ bigsd = 0.054
+ cigsd = 0.075
+ nigc = 1.0
+ poxedge = 1.0
+ pigcd = 1.0
+ ntox = 1.0
+ vfbsdoff = 0.0
* Charge AND Capacitance Model Parameters
+ dlc = 9.5675e-9
+ dwc = -2.252e-8
+ xpart = 0.0
+ cgso = 5.47296e-11
+ cgdo = 5.47296e-11
+ cgbo = 0.0
+ cgdl = 6.932416e-12
+ cgsl = 6.932416e-12
+ clc = 1.0e-7
+ cle = 0.6
+ cf = 1.2e-11
+ ckappas = 0.6
+ vfbcv = -0.1446893
+ acde = 0.552
+ moin = 14.504
+ noff = 4.0
+ voffcv = -0.1375
* High-Speed/RF Model Parameters
+ xrcrg1 = 12.0
+ xrcrg2 = 1.0
+ rbpb = 50.0
+ rbpd = 50.0
+ rbps = 50.0
+ rbdb = 50.0
+ rbsb = 50.0
+ gbmin = 1.0e-12
* Flicker AND Thermal Noise Model Parameters
+ ef = 0.88
+ noia = 1.2e+41
+ noib = 2.0e+25
+ noic = 0.0
+ em = 41000000.0
+ ntnoi = 1.0
+ lintnoi = -6.0e-8
+ af = 1.0
+ kf = 0.0
+ tnoia = 1.5
+ tnoib = 3.5
+ rnoia = 0.577
+ rnoib = 0.37
* Layout-Dependent Parasitics Model Parameters
+ xl = 0.0
+ xw = 0.0
+ dmcg = 0.0
+ dmdg = 0.0
+ dmcgt = 0.0
+ xgw = 0.0
+ xgl = 0.0
+ ngcon = 1.0
* Asymmetric Source/Drain Junction Diode Model Parameters
+ jss = 2.17e-5
+ jsws = 8.2e-10
+ ijthsfwd = 0.1
+ ijthsrev = 0.1
+ bvs = 12.8
+ xjbvs = 1.0
+ pbs = 0.6587
+ cjs = 0.0006938237703
+ mjs = 0.34629
+ pbsws = 0.7418
+ cjsws = 8.8756087e-11
+ mjsws = 0.26859
+ pbswgs = 1.3925
+ cjswgs = 2.37179002e-10
+ mjswgs = 0.70393
* Temperature Dependence Parameters
+ tnom = 30.0
+ kt1 = -4.425035427e-01 lkt1 = 6.507744004e-09 wkt1 = 8.137568041e-08 pkt1 = -6.509456321e-13
+ kt2 = -3.814115779e-02 lkt2 = 1.441129940e-09 wkt2 = 1.802051976e-08 pkt2 = -1.441509130e-13
+ at = 1.982944345e+04 lat = -1.586209729e-01 wat = -1.983466097e+00 pat = 1.586627093e-5
+ ute = -3.004779538e-01 lute = -1.456236123e-09 wute = -1.820941409e-08 pute = 1.456619288e-13
+ ua1 = 2.227221229e-09 lua1 = -1.249583528e-16 wua1 = -1.562533956e-15 pua1 = 1.249912319e-20
+ ub1 = -8.067509612e-19 lub1 = 1.052780165e-25 wub1 = 1.316442414e-24 pub1 = -1.053057173e-29
+ uc1 = 1.211394313e-10 luc1 = -1.031450233e-17 wuc1 = -1.289770533e-16 puc1 = 1.031721629e-21
+ kt1l = 0.0
+ prt = 0.0
+ tvoff = 0.0
+ njs = 1.2556
+ tpb = 0.0019551
+ tcj = 0.0012407
+ tpbsw = 0.00014242
+ tcjsw = 0.0
+ tpbswg = 0.0
+ tcjswg = 2.0e-12
+ xtis = 2.0
+ tvfbsdoff = 0.0
* DW AND DL Parameters
+ ll = 0.0
+ wl = 0.0
+ lln = 1.0
+ wln = 1.0
+ lw = 0.0
+ ww = 0.0
+ lwn = 1.0
+ wwn = 1.0
+ lwl = 0.0
+ wwl = 0.0
+ llc = 0.0
+ wlc = 0.0
+ lwc = 0.0
+ wwc = 0.0
+ lwlc = 0.0
+ wwlc = 0.0
* Stress Parameters
+ saref = 3.0e-6
+ sbref = 3.0e-6
+ kvth0 = 2.65e-8
+ lkvth0 = 0.0
+ wkvth0 = 2.5e-7
+ pkvth0 = 0.0
+ llodvth = 0.0
+ wlodvth = 1.0
+ wlod = 0.0
+ stk2 = 0.0
+ lodk2 = 1.0
+ lodeta0 = 1.0
+ ku0 = 4.5e-8
+ lku0 = 0.0
+ wku0 = 2.5e-7
+ pku0 = 0.0
+ tku0 = 0.0
+ llodku0 = 0.0
+ wlodku0 = 1.0
+ kvsat = 0.4
+ steta0 = 0.0
* Well Proximity Effect Parameters
.model sky130_fd_pr__pfet_01v8_hvt__model.3 pmos
* Model Flag Parameters
+ lmin = 2.0e-06 lmax = 4.0e-06 wmin = 7.0e-06 wmax = 0.0001
+ level = 54.0
+ version = 4.5
+ binunit = 2.0
+ mobmod = 0.0
+ capmod = 2.0
+ igcmod = 0.0
+ igbmod = 0.0
+ geomod = 0.0
+ diomod = 1.0
+ rdsmod = 0.0
+ rbodymod = 1.0
+ rgatemod = 0.0
+ permod = 1.0
+ acnqsmod = 0.0
+ trnqsmod = 0.0
+ fnoimod = 1.0
+ tnoimod = 1.0
+ tempmod = 0.0
* Process Parameters
+ toxe = {4.075605e-09+sky130_fd_pr__pfet_01v8_hvt__toxe_slope_spectre*(4.23e-09*0.9635*(sky130_fd_pr__pfet_01v8_hvt__toxe_slope/sqrt(l*w*mult)))}
+ toxm = 4.23e-9
+ dtox = 0.0
+ epsrox = 3.9
+ xj = 1.5e-7
+ ngate = 1.0e+23
+ ndep = 1.7e+17
+ nsd = 1.0e+20
+ rsh = 1.0
+ rshg = 0.1
* Basic Model Parameters
+ wint = -1.3156e-8
+ lint = 3.675e-10
+ vth0 = {-1.119915666e+00+sky130_fd_pr__pfet_01v8_hvt__vth0_slope_spectre*(sky130_fd_pr__pfet_01v8_hvt__vth0_slope/sqrt(l*w*mult))} lvth0 = 3.774475196e-08 wvth0 = 1.003084502e-07 pvth0 = -1.252806505e-13
+ k1 = 4.494134777e-01 lk1 = -4.927743860e-08 wk1 = -5.962605746e-07 pk1 = 2.176573958e-12
+ k2 = 2.188907818e-02 lk2 = 2.739723788e-08 wk2 = 2.676290182e-07 pk2 = -9.337719108e-13
+ k3 = -13.778
+ k3b = 2.0
+ w0 = 0.0
+ dvt0 = 4.05
+ dvt1 = 0.3
+ dvt2 = 0.03
+ dvt0w = -4.254
+ dvt1w = 1147200.0
+ dvt2w = -0.00896
+ dsub = 5.441809857e-01 ldsub = 6.326443004e-08 wdsub = 1.582317655e-06 pdsub = -6.328107617e-12
+ minv = 0.0
+ voffl = 0.0
+ lpe0 = 0.0
+ lpeb = 0.0
+ vbm = -3.0
+ dvtp0 = 0.0
+ dvtp1 = 0.0
+ phin = 0.0
+ cdsc = 0.0
+ cdscb = 0.0
+ cdscd = 0.0
+ cit = 1.0e-5
+ voff = {-2.329197800e-01+sky130_fd_pr__pfet_01v8_hvt__voff_slope_spectre*(sky130_fd_pr__pfet_01v8_hvt__voff_slope/sqrt(l*w*mult))} lvoff = 1.652705746e-09 wvoff = -9.036340758e-08 pvoff = 4.044496819e-13
+ nfactor = {1.452797052e+00+sky130_fd_pr__pfet_01v8_hvt__nfactor_slope_spectre*(sky130_fd_pr__pfet_01v8_hvt__nfactor_slope/sqrt(l*w*mult))} lnfactor = -2.290213634e-07 wnfactor = -3.937492861e-06 pnfactor = 1.516159561e-11
+ eta0 = 7.399584385e-02 leta0 = 2.401221153e-08 weta0 = 6.005735959e-07 peta0 = -2.401852962e-12
+ etab = -6.475108362e-02 letab = -2.099180756e-08 wetab = -5.250297473e-07 petab = 2.099733093e-12
+ u0 = 1.494443245e-02 lu0 = 1.382053321e-11 wu0 = 1.685002563e-08 pu0 = -7.278423250e-14
+ ua = -6.302626519e-10 lua = 2.183945486e-16 wua = 2.554194302e-15 pua = -9.264020289e-21
+ ub = 1.893616172e-18 lub = -3.355714597e-25 wub = -4.943666934e-25 pub = -6.055651387e-31
+ uc = -8.619605630e-11 luc = 3.190362870e-17 wuc = 1.275222280e-16 puc = -2.907828818e-22
+ ud = 0.0
+ up = 0.0
+ lp = 1.0
+ eu = 1.67
+ vtl = 0.0
+ xn = 3.0
+ vsat = 2.802866622e+05 lvsat = -2.986430529e-01 wvsat = -6.032978044e-01 pvsat = 1.676987031e-7
+ a0 = 1.121772689e+00 la0 = 1.332043544e-06 wa0 = 5.213475688e-06 pa0 = -1.166125293e-11
+ ags = 1.200413370e-01 lags = 1.095704884e-06 wags = 2.774863816e-06 pags = -3.044017506e-12
+ a1 = 0.0
+ a2 = 1.230120137e+00 la2 = -8.599241350e-07 wa2 = -3.022158278e-06 pa2 = 6.042095269e-12
+ b0 = 0.0
+ b1 = 0.0
+ keta = 3.522998383e-02 lketa = -1.808063581e-07 wketa = -6.204490730e-07 pketa = 1.205571483e-12
+ dwg = -5.722e-9
+ dwb = -1.7864e-8
+ pclm = -5.676184906e-01 lpclm = 2.403564029e-06 wpclm = 8.601275643e-06 ppclm = -1.755476015e-11
+ pdiblc1 = 0.39
+ pdiblc2 = 7.234105591e-03 lpdiblc2 = -1.347173793e-08 wpdiblc2 = -4.582507476e-08 ppdiblc2 = 8.807797262e-14
+ pdiblcb = 6.233112532e-04 lpdiblcb = -2.671639850e-09 wpdiblcb = -4.398212555e-09 ppdiblcb = -2.821032770e-15
+ drout = 0.56
+ pscbe1 = 6.848836222e+08 lpscbe1 = 2.301481451e+02 wpscbe1 = 8.088435868e+02 ppscbe1 = -1.617092674e-3
+ pscbe2 = 1.012194425e-08 lpscbe2 = -2.299840379e-15 wpscbe2 = -6.277060888e-15 ppscbe2 = 8.347904324e-21
+ pvag = 0.0
+ delta = 0.01
+ fprout = 0.0
+ pdits = 0.0
+ pditsl = 0.0
+ pditsd = 0.0
+ lambda = 0.0
+ lc = 5.0e-9
* Parameters FOR Asymmetric AND Bias-Dependent RDS Model
+ rdsw = 531.92
+ rsw = 0.0
+ rdw = 0.0
+ rdswmin = 0.0
+ rdwmin = 0.0
+ rswmin = 0.0
+ prwb = -0.32348
+ prwg = 0.02
+ wr = 1.0
* Impact Ionization Current Model Parameters
+ alpha0 = 1.0e-10
+ alpha1 = 1.0e-10
+ beta0 = 4.338574203e+00 lbeta0 = 1.656587743e-06 wbeta0 = -7.004714561e-06 pbeta0 = 4.385170507e-11
* Gidl Induced Drain Leakage Model Parameters
+ agidl = 4.480301510e-11 lagidl = 2.070482588e-16 wagidl = 9.877685154e-16 pagidl = -2.580076494e-21
+ bgidl = 1.332165271e+09 lbgidl = -6.640863996e+02 wbgidl = -2.333896826e+03 pbgidl = 4.666078239e-3
+ cgidl = 300.0
+ egidl = 0.1
* Gate Dielectric Tunneling Current Model Parameters
+ toxref = 4.23e-9
+ dlcig = 0.0
+ aigbacc = 0.43
+ bigbacc = 0.054
+ cigbacc = 0.075
+ nigbacc = 1.0
+ aigbinv = 0.35
+ bigbinv = 0.03
+ cigbinv = 0.006
+ eigbinv = 1.1
+ nigbinv = 3.0
+ aigc = 0.43
+ bigc = 0.054
+ cigc = 0.075
+ aigsd = 0.43
+ bigsd = 0.054
+ cigsd = 0.075
+ nigc = 1.0
+ poxedge = 1.0
+ pigcd = 1.0
+ ntox = 1.0
+ vfbsdoff = 0.0
* Charge AND Capacitance Model Parameters
+ dlc = 9.5675e-9
+ dwc = -2.252e-8
+ xpart = 0.0
+ cgso = 5.47296e-11
+ cgdo = 5.47296e-11
+ cgbo = 0.0
+ cgdl = 6.932416e-12
+ cgsl = 6.932416e-12
+ clc = 1.0e-7
+ cle = 0.6
+ cf = 1.2e-11
+ ckappas = 0.6
+ vfbcv = -0.1446893
+ acde = 0.552
+ moin = 14.504
+ noff = 4.0
+ voffcv = -0.1375
* High-Speed/RF Model Parameters
+ xrcrg1 = 12.0
+ xrcrg2 = 1.0
+ rbpb = 50.0
+ rbpd = 50.0
+ rbps = 50.0
+ rbdb = 50.0
+ rbsb = 50.0
+ gbmin = 1.0e-12
* Flicker AND Thermal Noise Model Parameters
+ ef = 0.88
+ noia = 1.2e+41
+ noib = 2.0e+25
+ noic = 0.0
+ em = 41000000.0
+ ntnoi = 1.0
+ lintnoi = -6.0e-8
+ af = 1.0
+ kf = 0.0
+ tnoia = 1.5
+ tnoib = 3.5
+ rnoia = 0.577
+ rnoib = 0.37
* Layout-Dependent Parasitics Model Parameters
+ xl = 0.0
+ xw = 0.0
+ dmcg = 0.0
+ dmdg = 0.0
+ dmcgt = 0.0
+ xgw = 0.0
+ xgl = 0.0
+ ngcon = 1.0
* Asymmetric Source/Drain Junction Diode Model Parameters
+ jss = 2.17e-5
+ jsws = 8.2e-10
+ ijthsfwd = 0.1
+ ijthsrev = 0.1
+ bvs = 12.8
+ xjbvs = 1.0
+ pbs = 0.6587
+ cjs = 0.0006938237703
+ mjs = 0.34629
+ pbsws = 0.7418
+ cjsws = 8.8756087e-11
+ mjsws = 0.26859
+ pbswgs = 1.3925
+ cjswgs = 2.37179002e-10
+ mjswgs = 0.70393
* Temperature Dependence Parameters
+ tnom = 30.0
+ kt1 = -4.276512050e-01 lkt1 = -5.289069037e-08 wkt1 = -3.273614068e-07 pkt1 = 9.837022949e-13
+ kt2 = -3.546941517e-02 lkt2 = -9.243876817e-09 wkt2 = -1.074895902e-08 pkt2 = -2.909414343e-14
+ at = -3.150330841e+05 lat = 1.180583013e+00 wat = 5.263340179e+00 pat = -1.311562777e-5
+ ute = -2.934914571e-01 lute = -2.939708773e-08 wute = -9.580177308e-07 pute = 3.904204437e-12
+ ua1 = 1.929587957e-09 lua1 = 1.065355975e-15 wua1 = 7.530785159e-15 pua1 = -2.386746968e-20
+ ub1 = -5.680795031e-19 lub1 = -8.492323924e-25 wub1 = -5.135803617e-24 pub1 = 1.527367000e-29
+ uc1 = 8.440515145e-11 luc1 = 1.365956172e-16 wuc1 = 1.838595822e-15 puc1 = -6.837123705e-21
+ kt1l = 0.0
+ prt = 0.0
+ tvoff = 0.0
+ njs = 1.2556
+ tpb = 0.0019551
+ tcj = 0.0012407
+ tpbsw = 0.00014242
+ tcjsw = 0.0
+ tpbswg = 0.0
+ tcjswg = 2.0e-12
+ xtis = 2.0
+ tvfbsdoff = 0.0
* DW AND DL Parameters
+ ll = 0.0
+ wl = 0.0
+ lln = 1.0
+ wln = 1.0
+ lw = 0.0
+ ww = 0.0
+ lwn = 1.0
+ wwn = 1.0
+ lwl = 0.0
+ wwl = 0.0
+ llc = 0.0
+ wlc = 0.0
+ lwc = 0.0
+ wwc = 0.0
+ lwlc = 0.0
+ wwlc = 0.0
* Stress Parameters
+ saref = 3.0e-6
+ sbref = 3.0e-6
+ kvth0 = 2.65e-8
+ lkvth0 = 0.0
+ wkvth0 = 2.5e-7
+ pkvth0 = 0.0
+ llodvth = 0.0
+ wlodvth = 1.0
+ wlod = 0.0
+ stk2 = 0.0
+ lodk2 = 1.0
+ lodeta0 = 1.0
+ ku0 = 4.5e-8
+ lku0 = 0.0
+ wku0 = 2.5e-7
+ pku0 = 0.0
+ tku0 = 0.0
+ llodku0 = 0.0
+ wlodku0 = 1.0
+ kvsat = 0.4
+ steta0 = 0.0
* Well Proximity Effect Parameters
.model sky130_fd_pr__pfet_01v8_hvt__model.4 pmos
* Model Flag Parameters
+ lmin = 1.0e-06 lmax = 2.0e-06 wmin = 7.0e-06 wmax = 0.0001
+ level = 54.0
+ version = 4.5
+ binunit = 2.0
+ mobmod = 0.0
+ capmod = 2.0
+ igcmod = 0.0
+ igbmod = 0.0
+ geomod = 0.0
+ diomod = 1.0
+ rdsmod = 0.0
+ rbodymod = 1.0
+ rgatemod = 0.0
+ permod = 1.0
+ acnqsmod = 0.0
+ trnqsmod = 0.0
+ fnoimod = 1.0
+ tnoimod = 1.0
+ tempmod = 0.0
* Process Parameters
+ toxe = {4.075605e-09+sky130_fd_pr__pfet_01v8_hvt__toxe_slope_spectre*(4.23e-09*0.9635*(sky130_fd_pr__pfet_01v8_hvt__toxe_slope/sqrt(l*w*mult)))}
+ toxm = 4.23e-9
+ dtox = 0.0
+ epsrox = 3.9
+ xj = 1.5e-7
+ ngate = 1.0e+23
+ ndep = 1.7e+17
+ nsd = 1.0e+20
+ rsh = 1.0
+ rshg = 0.1
* Basic Model Parameters
+ wint = -1.3156e-8
+ lint = 3.675e-10
+ vth0 = {-1.099504427e+00+sky130_fd_pr__pfet_01v8_hvt__vth0_slope_spectre*(sky130_fd_pr__pfet_01v8_hvt__vth0_slope/sqrt(l*w*mult))} lvth0 = -3.062724703e-09 wvth0 = -1.155877452e-07 pvth0 = 3.063530567e-13
+ k1 = 4.209718791e-01 lk1 = 7.584854084e-09 wk1 = 8.719084470e-07 pk1 = -7.586849811e-13
+ k2 = 3.704742328e-02 lk2 = -2.908310938e-09 wk2 = -3.449358634e-07 pk2 = 2.909076172e-13
+ k3 = -13.778
+ k3b = 2.0
+ w0 = 0.0
+ dvt0 = 4.05
+ dvt1 = 0.3
+ dvt2 = 0.03
+ dvt0w = -4.254
+ dvt1w = 1147200.0
+ dvt2w = -0.00896
+ dsub = 6.248563615e-01 ldsub = -9.802702512e-08 wdsub = -6.487342653e-06 pdsub = 9.805281799e-12
+ minv = 0.0
+ voffl = 0.0
+ lpe0 = 0.0
+ lpeb = 0.0
+ vbm = -3.0
+ dvtp0 = 0.0
+ dvtp1 = 0.0
+ phin = 0.0
+ cdsc = 0.0
+ cdscb = 0.0
+ cdscd = 0.0
+ cit = 1.0e-5
+ voff = {-2.325081924e-01+sky130_fd_pr__pfet_01v8_hvt__voff_slope_spectre*(sky130_fd_pr__pfet_01v8_hvt__voff_slope/sqrt(l*w*mult))} lvoff = 8.298331457e-10 wvoff = 1.534536107e-07 pvoff = -8.300514914e-14
+ nfactor = {1.307890341e+00+sky130_fd_pr__pfet_01v8_hvt__nfactor_slope_spectre*(sky130_fd_pr__pfet_01v8_hvt__nfactor_slope/sqrt(l*w*mult))} lnfactor = 6.068555238e-08 wnfactor = 6.682283711e-06 pnfactor = -6.070151997e-12
+ eta0 = 1.025612777e-01 leta0 = -3.309766049e-08 weta0 = -2.256721398e-06 peta0 = 3.310636915e-12
+ etab = -7.528859417e-02 letab = 7.546846655e-11 wetab = 5.289985705e-07 petab = -7.548832381e-15
+ u0 = 1.487004830e-02 lu0 = 1.625341573e-10 wu0 = -1.142363503e-08 pu0 = -1.625769232e-14
+ ua = -5.150923284e-10 lua = -1.186144832e-17 wua = -2.672965289e-15 pua = 1.186456930e-21
+ ub = 1.701680343e-18 lub = 4.815912575e-26 wub = 1.612214775e-24 pub = -4.817179738e-30
+ uc = -6.957218512e-11 luc = -1.331895119e-18 wuc = -8.455943128e-17 puc = 1.332245567e-22
+ ud = 0.0
+ up = 0.0
+ lp = 1.0
+ eu = 1.67
+ vtl = 0.0
+ xn = 3.0
+ vsat = 1.333083536e+05 lvsat = -4.794464738e-03 wvsat = -7.592920936e-01 pvsat = 4.795726258e-7
+ a0 = 1.788772307e+00 la0 = -1.465446683e-09 wa0 = -6.926128788e-07 pa0 = 1.465832272e-13
+ ags = 6.777558291e-01 lags = -1.931417976e-08 wags = 2.859773125e-07 pags = 1.931926170e-12
+ a1 = 0.0
+ a2 = 0.8
+ b0 = 0.0
+ b1 = 0.0
+ keta = -5.401654004e-02 lketa = -2.378906588e-09 wketa = -1.364620924e-07 pketa = 2.379532526e-13
+ dwg = -5.722e-9
+ dwb = -1.7864e-8
+ pclm = 6.431308069e-01 lpclm = -1.704466486e-08 wpclm = -1.032102182e-06 ppclm = 1.704914966e-12
+ pdiblc1 = 3.865689403e-01 lpdiblc1 = 6.859597592e-09 wpdiblc1 = 3.431962491e-07 ppdiblc1 = -6.861402490e-13