* Copyright 2020 The SkyWater PDK Authors
*
* Licensed under the Apache License, Version 2.0 (the "License");
* you may not use this file except in compliance with the License.
* You may obtain a copy of the License at
*
*     https://www.apache.org/licenses/LICENSE-2.0
*
* Unless required by applicable law or agreed to in writing, software
* distributed under the License is distributed on an "AS IS" BASIS,
* WITHOUT WARRANTIES OR CONDITIONS OF ANY KIND, either express or implied.
* See the License for the specific language governing permissions and
* limitations under the License.

* SKY130 Spice File.
.param sky130_fd_pr__pfet_01v8_hvt__toxe_slope_spectre = 0.0
.param sky130_fd_pr__pfet_01v8_hvt__vth0_slope_spectre = 0.0
.param sky130_fd_pr__pfet_01v8_hvt__voff_slope_spectre = 0.0
.param sky130_fd_pr__pfet_01v8_hvt__nfactor_slope_spectre = 0.0
* statistics {
*   process {
*   }
*   mismatch {
*     vary sky130_fd_pr__pfet_01v8_hvt__toxe_slope_spectre dist=gauss std = 1.0
*     vary sky130_fd_pr__pfet_01v8_hvt__vth0_slope_spectre dist=gauss std = 1.0
*     vary sky130_fd_pr__pfet_01v8_hvt__voff_slope_spectre dist=gauss std = 1.0
*     vary sky130_fd_pr__pfet_01v8_hvt__nfactor_slope_spectre dist=gauss std = 1.0
*   }
* }
.subckt  sky130_fd_pr__pfet_01v8_hvt d g s b
+ 
.param  l = 1 w = 1 ad = 0 as = 0 pd = 0 ps = 0 nrd = 0 nrs = 0 sa = 0 sb = 0 sd = 0 mult = 1 nf = 1.0
msky130_fd_pr__pfet_01v8_hvt d g s b sky130_fd_pr__pfet_01v8_hvt__model l = {l} w = {w} ad = {ad} as = {as} pd = {pd} ps = {ps} nrd = {nrd} nrs = {nrs} sa = {sa} sb = {sb} sd = {sd} nf = {nf}
.model sky130_fd_pr__pfet_01v8_hvt__model.0 pmos
* DC IV MOS Parameters
+ lmin = 1.45e-07 lmax = 1.55e-07 wmin = 1.255e-06 wmax = 1.265e-6
+ level = 54.0
+ tnom = 30.0
+ version = 4.5
+ toxm = 4.23e-9
+ xj = 1.5e-7
+ lln = 1.0
+ lwn = 1.0
+ wln = 1.0
+ wwn = 1.0
+ lint = {-2.026e-08+sky130_fd_pr__pfet_01v8_hvt__lint_diff}
+ ll = 0.0
+ lw = 0.0
+ lwl = 0.0
+ wint = {9.364e-009+sky130_fd_pr__pfet_01v8_hvt__wint_diff}
+ wl = 0.0
+ ww = 0.0
+ wwl = 0.0
+ xl = 0.0
+ xw = 0.0
+ mobmod = 0.0
+ binunit = 2.0
+ dwg = -5.722e-9
+ dwb = -1.7864e-8
* BSIM4 - Model Selectors
+ igcmod = 0.0
+ igbmod = 0.0
+ rgatemod = 0.0
+ rbodymod = 1.0
+ trnqsmod = 0.0
+ acnqsmod = 0.0
+ fnoimod = 1.0
+ tnoimod = 1.0
+ permod = 1.0
+ geomod = 0.0
+ rdsmod = 0.0
+ tempmod = 0.0
+ lintnoi = -6.0e-8
+ vfbsdoff = 0.0
+ lambda = 0.0
+ vtl = 0.0
+ lc = 5.0e-9
+ xn = 3.0
+ rnoia = 0.577
+ rnoib = 0.37
+ tnoia = 1.5
+ tnoib = 3.5
* BSIM4 - Process Parameters
+ epsrox = 3.9
+ toxe = {4.23e-009*sky130_fd_pr__pfet_01v8_hvt__toxe_mult+sky130_fd_pr__pfet_01v8_hvt__toxe_slope_spectre*(4.23e-09*sky130_fd_pr__pfet_01v8_hvt__toxe_mult*(sky130_fd_pr__pfet_01v8_hvt__toxe_slope/sqrt(l*w*mult)))}
+ dtox = 0.0
+ ndep = 1.7e+17
+ nsd = 1.0e+20
+ rshg = 0.1
+ rsh = {1*sky130_fd_pr__pfet_01v8_hvt__rshp_mult}
* Threshold Voltage Parameters
+ vth0 = {-1.099+sky130_fd_pr__pfet_01v8_hvt__vth0_diff_0+sky130_fd_pr__pfet_01v8_hvt__vth0_slope_spectre*(sky130_fd_pr__pfet_01v8_hvt__vth0_slope/sqrt(l*w*mult))}
+ k1 = 1.0793014
+ k2 = {-0.20044131+sky130_fd_pr__pfet_01v8_hvt__k2_diff_0}
+ k3 = -13.778
+ dvt0 = 4.05
+ dvt1 = 0.3
+ dvt2 = 0.03
+ dvt0w = -4.254
+ dvt1w = 1147200.0
+ dvt2w = -0.00896
+ w0 = 0.0
+ k3b = 2.0
* NEW BSIM4 Parameters for Level 54
+ phin = 0.0
+ lpe0 = 0.0
+ lpeb = 0.0
+ vbm = -3.0
+ dvtp0 = 0.0
+ dvtp1 = 0.0
* Mobility Parameters
+ vsat = {83438+sky130_fd_pr__pfet_01v8_hvt__vsat_diff_0}
+ ua = {-2.1868798e-009+sky130_fd_pr__pfet_01v8_hvt__ua_diff_0}
+ ub = {1.7722077e-018+sky130_fd_pr__pfet_01v8_hvt__ub_diff_0}
+ uc = -1.6417456e-11
+ rdsw = {531.92+sky130_fd_pr__pfet_01v8_hvt__rdsw_diff_0}
+ prwb = -0.32348
+ prwg = 0.02
+ wr = 1.0
+ u0 = {0.002956+sky130_fd_pr__pfet_01v8_hvt__u0_diff_0}
+ a0 = {0.65888+sky130_fd_pr__pfet_01v8_hvt__a0_diff_0}
+ keta = {-0.047528+sky130_fd_pr__pfet_01v8_hvt__keta_diff_0}
+ a1 = 0.0
+ a2 = 0.65104277
+ ags = {1.25+sky130_fd_pr__pfet_01v8_hvt__ags_diff_0}
+ b0 = {0+sky130_fd_pr__pfet_01v8_hvt__b0_diff_0}
+ b1 = {0+sky130_fd_pr__pfet_01v8_hvt__b1_diff_0}
* BSIM4 - Mobility Parameters
+ eu = 1.67
+ rdswmin = 0.0
+ rdw = 0.0
+ rdwmin = 0.0
+ rsw = 0.0
+ rswmin = 0.0
* Subthreshold Current Parameters
+ voff = {-0.2637777+sky130_fd_pr__pfet_01v8_hvt__voff_diff_0+sky130_fd_pr__pfet_01v8_hvt__voff_slope_spectre*(sky130_fd_pr__pfet_01v8_hvt__voff_slope/sqrt(l*w*mult))}
+ nfactor = {1.6513386+sky130_fd_pr__pfet_01v8_hvt__nfactor_diff_0+sky130_fd_pr__pfet_01v8_hvt__nfactor_slope_spectre*(sky130_fd_pr__pfet_01v8_hvt__nfactor_slope/sqrt(l*w*mult))}
+ up = 0.0
+ ud = 0.0
+ lp = 1.0
+ tvfbsdoff = 0.0
+ tvoff = {0+sky130_fd_pr__pfet_01v8_hvt__tvoff_diff_0}
+ cit = 1.0e-5
+ cdsc = 0.0
+ cdscb = 0.0
+ cdscd = 0.0
+ eta0 = {0.16306432+sky130_fd_pr__pfet_01v8_hvt__eta0_diff_0}
+ etab = -0.026662586
+ dsub = 0.35818196
* BSIM4 - Sub-threshold parameters
+ voffl = 0.0
+ minv = 0.0
* Rout Parameters
+ pclm = {0.72203134+sky130_fd_pr__pfet_01v8_hvt__pclm_diff_0}
+ pdiblc1 = 0.38441605
+ pdiblc2 = 0.0078574606
+ pdiblcb = -0.225
+ drout = 0.63135838
+ pscbe1 = 8.0e+8
+ pscbe2 = 9.2312485e-9
+ pvag = 0.0
+ delta = 0.01
+ alpha0 = 1.0e-10
+ alpha1 = 1.0e-10
+ beta0 = 8.4343701
* BSIM4 - Rout Parameters
+ fprout = 0.0
+ pdits = {0+sky130_fd_pr__pfet_01v8_hvt__pdits_diff_0}
+ pditsl = 0.0
+ pditsd = {0+sky130_fd_pr__pfet_01v8_hvt__pditsd_diff_0}
* BSIM4 - Gate Induced Drain Leakage Model Parameters
+ agidl = {1.6478246e-009+sky130_fd_pr__pfet_01v8_hvt__agidl_diff_0}
+ bgidl = {1e009+sky130_fd_pr__pfet_01v8_hvt__bgidl_diff_0}
+ cgidl = {300+sky130_fd_pr__pfet_01v8_hvt__cgidl_diff_0}
+ egidl = 0.1
* BSIM4 - Gate Leakage Current Parameters
+ aigbacc = 0.43
+ bigbacc = 0.054
+ cigbacc = 0.075
+ nigbacc = 1.0
+ aigbinv = 0.35
+ bigbinv = 0.03
+ cigbinv = 0.006
+ eigbinv = 1.1
+ nigbinv = 3.0
+ aigc = 0.43
+ bigc = 0.054
+ cigc = 0.075
+ nigc = 1.0
+ aigsd = 0.43
+ bigsd = 0.054
+ cigsd = 0.075
+ dlcig = 0.0
+ poxedge = 1.0
+ pigcd = 1.0
+ ntox = 1.0
+ toxref = 4.23e-9
* Temperature Effects Parameters
+ kt1 = {-0.54438+sky130_fd_pr__pfet_01v8_hvt__kt1_diff_0}
+ kt2 = -0.053141
+ at = 29266.0
+ ute = -0.279
+ ua1 = 4.3057e-10
+ ub1 = -1.4175e-19
+ uc1 = -5.2391e-11
+ kt1l = 0.0
+ prt = 0.0
* BSIM4 - High Speed RF Model Parameters
+ xrcrg1 = 12.0
+ xrcrg2 = 1.0
+ rbpb = 50.0
+ rbpd = 50.0
+ rbps = 50.0
+ rbdb = 50.0
+ rbsb = 50.0
+ gbmin = 1.0e-12
* BSIM4 - Flicker and Thermal Noise Parameters
+ noia = 1.2e+41
+ noib = 2.0e+25
+ noic = 0.0
+ em = 4.1000000e+7
+ af = 1.0
+ ef = 0.88
+ kf = 0.0
+ ntnoi = 1.0
* BSIM4 - Layout Dependent Parasitic Model Parameters
+ dmcg = 0.0
+ dmcgt = 0.0
+ dmdg = 0.0
+ xgw = 0.0
+ xgl = 0.0
+ ngcon = 1.0
* Diode DC IV Parameters
* BSIM4 - Diode DC IV parameters
+ diomod = 1.0
+ njs = 1.2556
+ jss = 2.17e-5
+ jsws = 8.200000000000001e-10
+ xtis = 2.0
+ bvs = 12.8
+ xjbvs = 1.0
+ ijthsrev = 0.1
+ ijthsfwd = 0.1
* Diode and FET Capacitance Parameters
+ tpb = 0.0019551
+ tpbsw = 0.00014242
+ tpbswg = 0.0
+ tcj = 0.0012407
+ tcjsw = 0.0
+ tcjswg = 2.0e-12
+ cgdo = {6e-11*sky130_fd_pr__pfet_01v8_hvt__overlap_mult}
+ cgso = {6e-11*sky130_fd_pr__pfet_01v8_hvt__overlap_mult}
+ cgbo = 0.0
+ capmod = 2.0
+ xpart = 0.0
+ cgsl = {7.6e-012*sky130_fd_pr__pfet_01v8_hvt__overlap_mult}
+ cgdl = {7.6e-012*sky130_fd_pr__pfet_01v8_hvt__overlap_mult}
+ cf = 1.2e-11
+ clc = 1.0e-7
+ cle = 0.6
+ dlc = {-1.106e-08+sky130_fd_pr__pfet_01v8_hvt__dlc_diff+sky130_fd_pr__pfet_01v8_hvt__dlc_rotweak}
+ dwc = {0+sky130_fd_pr__pfet_01v8_hvt__dwc_diff}
+ vfbcv = -0.1446893
+ acde = 0.552
+ moin = 14.504
+ noff = 4.0
+ voffcv = -0.1375
+ ngate = 1.0e+23
+ lwc = 0.0
+ llc = 0.0
+ lwlc = 0.0
+ wlc = 0.0
+ wwc = 0.0
+ wwlc = 0.0
* BSIM4 - FET and Diode capacitance parameters
+ ckappas = 0.6
+ cjs = {0.00075561*sky130_fd_pr__pfet_01v8_hvt__ajunction_mult}
+ mjs = 0.34629
+ pbs = 0.6587
+ cjsws = {9.2435e-011*sky130_fd_pr__pfet_01v8_hvt__pjunction_mult}
+ mjsws = 0.26859
+ pbsws = 0.7418
+ cjswgs = {2.4701e-010*sky130_fd_pr__pfet_01v8_hvt__pjunction_mult}
+ mjswgs = 0.70393
+ pbswgs = 1.3925
* Stress Parameters
+ saref = 1.04e-6
+ sbref = 1.04e-6
+ wlod = .0e-6
+ kvth0 = 2.65e-8
+ lkvth0 = 0.0
+ wkvth0 = .25e-6
+ pkvth0 = 0.0
+ llodvth = 0.0
+ wlodvth = 1.0
+ stk2 = 0.0
+ lodk2 = 1.0
+ lodeta0 = 1.0
+ ku0 = 4.5e-8
+ lku0 = 0.0
+ wku0 = .25e-6
+ pku0 = 0.0
+ llodku0 = 0.0
+ wlodku0 = 1.0
+ kvsat = 0.4
+ steta0 = 0.0
+ tku0 = 0.0
.model sky130_fd_pr__pfet_01v8_hvt__model.1 pmos
* DC IV MOS Parameters
+ lmin = 1.45e-07 lmax = 1.55e-07 wmin = 1.675e-06 wmax = 1.685e-6
+ level = 54.0
+ tnom = 30.0
+ version = 4.5
+ toxm = 4.23e-9
+ xj = 1.5e-7
+ lln = 1.0
+ lwn = 1.0
+ wln = 1.0
+ wwn = 1.0
+ lint = {-2.026e-08+sky130_fd_pr__pfet_01v8_hvt__lint_diff}
+ ll = 0.0
+ lw = 0.0
+ lwl = 0.0
+ wint = {9.364e-009+sky130_fd_pr__pfet_01v8_hvt__wint_diff}
+ wl = 0.0
+ ww = 0.0
+ wwl = 0.0
+ xl = 0.0
+ xw = 0.0
+ mobmod = 0.0
+ binunit = 2.0
+ dwg = -5.722e-9
+ dwb = -1.7864e-8
* BSIM4 - Model Selectors
+ igcmod = 0.0
+ igbmod = 0.0
+ rgatemod = 0.0
+ rbodymod = 1.0
+ trnqsmod = 0.0
+ acnqsmod = 0.0
+ fnoimod = 1.0
+ tnoimod = 1.0
+ permod = 1.0
+ geomod = 0.0
+ rdsmod = 0.0
+ tempmod = 0.0
+ lintnoi = -6.0e-8
+ vfbsdoff = 0.0
+ lambda = 0.0
+ vtl = 0.0
+ lc = 5.0e-9
+ xn = 3.0
+ rnoia = 0.577
+ rnoib = 0.37
+ tnoia = 1.5
+ tnoib = 3.5
* BSIM4 - Process Parameters
+ epsrox = 3.9
+ toxe = {4.23e-009*sky130_fd_pr__pfet_01v8_hvt__toxe_mult+sky130_fd_pr__pfet_01v8_hvt__toxe_slope_spectre*(4.23e-09*sky130_fd_pr__pfet_01v8_hvt__toxe_mult*(sky130_fd_pr__pfet_01v8_hvt__toxe_slope/sqrt(l*w*mult)))}
+ dtox = 0.0
+ ndep = 1.7e+17
+ nsd = 1.0e+20
+ rshg = 0.1
+ rsh = {1*sky130_fd_pr__pfet_01v8_hvt__rshp_mult}
* Threshold Voltage Parameters
+ vth0 = {-1.0955+sky130_fd_pr__pfet_01v8_hvt__vth0_diff_1+sky130_fd_pr__pfet_01v8_hvt__vth0_slope_spectre*(sky130_fd_pr__pfet_01v8_hvt__vth0_slope/sqrt(l*w*mult))}
+ k1 = 1.0888183
+ k2 = {-0.20196049+sky130_fd_pr__pfet_01v8_hvt__k2_diff_1}
+ k3 = -13.778
+ dvt0 = 4.05
+ dvt1 = 0.3
+ dvt2 = 0.03
+ dvt0w = -4.254
+ dvt1w = 1147200.0
+ dvt2w = -0.00896
+ w0 = 0.0
+ k3b = 2.0
* NEW BSIM4 Parameters for Level 54
+ phin = 0.0
+ lpe0 = 0.0
+ lpeb = 0.0
+ vbm = -3.0
+ dvtp0 = 0.0
+ dvtp1 = 0.0
* Mobility Parameters
+ vsat = {87563+sky130_fd_pr__pfet_01v8_hvt__vsat_diff_1}
+ ua = {-2.1838377e-009+sky130_fd_pr__pfet_01v8_hvt__ua_diff_1}
+ ub = {1.8080364e-018+sky130_fd_pr__pfet_01v8_hvt__ub_diff_1}
+ uc = -1.1831763e-11
+ rdsw = {531.92+sky130_fd_pr__pfet_01v8_hvt__rdsw_diff_1}
+ prwb = -0.32348
+ prwg = 0.02
+ wr = 1.0
+ u0 = {0.003135+sky130_fd_pr__pfet_01v8_hvt__u0_diff_1}
+ a0 = {0.65345+sky130_fd_pr__pfet_01v8_hvt__a0_diff_1}
+ keta = {-0.017748+sky130_fd_pr__pfet_01v8_hvt__keta_diff_1}
+ a1 = 0.0
+ a2 = 0.69867026
+ ags = {1.25+sky130_fd_pr__pfet_01v8_hvt__ags_diff_1}
+ b0 = {2.1073e-024+sky130_fd_pr__pfet_01v8_hvt__b0_diff_1}
+ b1 = {0+sky130_fd_pr__pfet_01v8_hvt__b1_diff_1}
* BSIM4 - Mobility Parameters
+ eu = 1.67
+ rdswmin = 0.0
+ rdw = 0.0
+ rdwmin = 0.0
+ rsw = 0.0
+ rswmin = 0.0
* Subthreshold Current Parameters
+ voff = {-0.24702924+sky130_fd_pr__pfet_01v8_hvt__voff_diff_1+sky130_fd_pr__pfet_01v8_hvt__voff_slope_spectre*(sky130_fd_pr__pfet_01v8_hvt__voff_slope/sqrt(l*w*mult))}
+ nfactor = {1.9+sky130_fd_pr__pfet_01v8_hvt__nfactor_diff_1+sky130_fd_pr__pfet_01v8_hvt__nfactor_slope_spectre*(sky130_fd_pr__pfet_01v8_hvt__nfactor_slope/sqrt(l*w*mult))}
+ up = 0.0
+ ud = 0.0
+ lp = 1.0
+ tvfbsdoff = 0.0
+ tvoff = {0+sky130_fd_pr__pfet_01v8_hvt__tvoff_diff_1}
+ cit = 1.0e-5
+ cdsc = 0.0
+ cdscb = 0.0
+ cdscd = 0.0
+ eta0 = {0.15222921+sky130_fd_pr__pfet_01v8_hvt__eta0_diff_1}
+ etab = -0.045415713
+ dsub = 0.2958736
* BSIM4 - Sub-threshold parameters
+ voffl = 0.0
+ minv = 0.0
* Rout Parameters
+ pclm = {0.66659106+sky130_fd_pr__pfet_01v8_hvt__pclm_diff_1}
+ pdiblc1 = 0.16607535
+ pdiblc2 = 0.0040091595
+ pdiblcb = -0.075
+ drout = 1.0
+ pscbe1 = 7.9962646e+8
+ pscbe2 = 7.7649067e-9
+ pvag = 0.0
+ delta = 0.01
+ alpha0 = 1.0e-10
+ alpha1 = 1.0e-10
+ beta0 = 8.2550319
* BSIM4 - Rout Parameters
+ fprout = 0.0
+ pdits = {0+sky130_fd_pr__pfet_01v8_hvt__pdits_diff_1}
+ pditsl = 0.0
+ pditsd = {0+sky130_fd_pr__pfet_01v8_hvt__pditsd_diff_1}
* BSIM4 - Gate Induced Drain Leakage Model Parameters
+ agidl = {6.7051481e-010+sky130_fd_pr__pfet_01v8_hvt__agidl_diff_1}
+ bgidl = {1e009+sky130_fd_pr__pfet_01v8_hvt__bgidl_diff_1}
+ cgidl = {300+sky130_fd_pr__pfet_01v8_hvt__cgidl_diff_1}
+ egidl = 0.1
* BSIM4 - Gate Leakage Current Parameters
+ aigbacc = 0.43
+ bigbacc = 0.054
+ cigbacc = 0.075
+ nigbacc = 1.0
+ aigbinv = 0.35
+ bigbinv = 0.03
+ cigbinv = 0.006
+ eigbinv = 1.1
+ nigbinv = 3.0
+ aigc = 0.43
+ bigc = 0.054
+ cigc = 0.075
+ nigc = 1.0
+ aigsd = 0.43
+ bigsd = 0.054
+ cigsd = 0.075
+ dlcig = 0.0
+ poxedge = 1.0
+ pigcd = 1.0
+ ntox = 1.0
+ toxref = 4.23e-9
* Temperature Effects Parameters
+ kt1 = {-0.54438+sky130_fd_pr__pfet_01v8_hvt__kt1_diff_1}
+ kt2 = -0.053141
+ at = 29266.0
+ ute = -0.279
+ ua1 = 4.7797e-10
+ ub1 = -1.4175e-19
+ uc1 = -5.2391e-11
+ kt1l = 0.0
+ prt = 0.0
* BSIM4 - High Speed RF Model Parameters
+ xrcrg1 = 12.0
+ xrcrg2 = 1.0
+ rbpb = 50.0
+ rbpd = 50.0
+ rbps = 50.0
+ rbdb = 50.0
+ rbsb = 50.0
+ gbmin = 1.0e-12
* BSIM4 - Flicker and Thermal Noise Parameters
+ noia = 1.2e+41
+ noib = 2.0e+25
+ noic = 0.0
+ em = 4.1000000e+7
+ af = 1.0
+ ef = 0.88
+ kf = 0.0
+ ntnoi = 1.0
* BSIM4 - Layout Dependent Parasitic Model Parameters
+ dmcg = 0.0
+ dmcgt = 0.0
+ dmdg = 0.0
+ xgw = 0.0
+ xgl = 0.0
+ ngcon = 1.0
* Diode DC IV Parameters
* BSIM4 - Diode DC IV parameters
+ diomod = 1.0
+ njs = 1.2556
+ jss = 2.17e-5
+ jsws = 8.200000000000001e-10
+ xtis = 2.0
+ bvs = 12.8
+ xjbvs = 1.0
+ ijthsrev = 0.1
+ ijthsfwd = 0.1
* Diode and FET Capacitance Parameters
+ tpb = 0.0019551
+ tpbsw = 0.00014242
+ tpbswg = 0.0
+ tcj = 0.0012407
+ tcjsw = 0.0
+ tcjswg = 2.0e-12
+ cgdo = {6e-11*sky130_fd_pr__pfet_01v8_hvt__overlap_mult}
+ cgso = {6e-11*sky130_fd_pr__pfet_01v8_hvt__overlap_mult}
+ cgbo = 0.0
+ capmod = 2.0
+ xpart = 0.0
+ cgsl = {7.6e-012*sky130_fd_pr__pfet_01v8_hvt__overlap_mult}
+ cgdl = {7.6e-012*sky130_fd_pr__pfet_01v8_hvt__overlap_mult}
+ cf = 1.2e-11
+ clc = 1.0e-7
+ cle = 0.6
+ dlc = {-1.106e-08+sky130_fd_pr__pfet_01v8_hvt__dlc_diff+sky130_fd_pr__pfet_01v8_hvt__dlc_rotweak}
+ dwc = {0+sky130_fd_pr__pfet_01v8_hvt__dwc_diff}
+ vfbcv = -0.1446893
+ acde = 0.552
+ moin = 14.504
+ noff = 4.0
+ voffcv = -0.1375
+ ngate = 1.0e+23
+ lwc = 0.0
+ llc = 0.0
+ lwlc = 0.0
+ wlc = 0.0
+ wwc = 0.0
+ wwlc = 0.0
* BSIM4 - FET and Diode capacitance parameters
+ ckappas = 0.6
+ cjs = {0.00075561*sky130_fd_pr__pfet_01v8_hvt__ajunction_mult}
+ mjs = 0.34629
+ pbs = 0.6587
+ cjsws = {9.2435e-011*sky130_fd_pr__pfet_01v8_hvt__pjunction_mult}
+ mjsws = 0.26859
+ pbsws = 0.7418
+ cjswgs = {2.4701e-010*sky130_fd_pr__pfet_01v8_hvt__pjunction_mult}
+ mjswgs = 0.70393
+ pbswgs = 1.3925
* Stress Parameters
+ saref = 1.04e-6
+ sbref = 1.04e-6
+ wlod = .0e-6
+ kvth0 = 2.65e-8
+ lkvth0 = 0.0
+ wkvth0 = .25e-6
+ pkvth0 = 0.0
+ llodvth = 0.0
+ wlodvth = 1.0
+ stk2 = 0.0
+ lodk2 = 1.0
+ lodeta0 = 1.0
+ ku0 = 4.5e-8
+ lku0 = 0.0
+ wku0 = .25e-6
+ pku0 = 0.0
+ llodku0 = 0.0
+ wlodku0 = 1.0
+ kvsat = 0.4
+ steta0 = 0.0
+ tku0 = 0.0
.model sky130_fd_pr__pfet_01v8_hvt__model.2 pmos
* DC IV MOS Parameters
+ lmin = 9.95e-07 lmax = 1.005e-06 wmin = 9.95e-07 wmax = 1.005e-6
+ level = 54.0
+ tnom = 30.0
+ version = 4.5
+ toxm = 4.23e-9
+ xj = 1.5e-7
+ lln = 1.0
+ lwn = 1.0
+ wln = 1.0
+ wwn = 1.0
+ lint = {-1.176e-008+sky130_fd_pr__pfet_01v8_hvt__lint_diff}
+ ll = 0.0
+ lw = 0.0
+ lwl = 0.0
+ wint = {9.364e-009+sky130_fd_pr__pfet_01v8_hvt__wint_diff}
+ wl = 0.0
+ ww = 0.0
+ wwl = 0.0
+ xl = 0.0
+ xw = 0.0
+ mobmod = 0.0
+ binunit = 2.0
+ dwg = -5.722e-9
+ dwb = -1.7864e-8
* BSIM4 - Model Selectors
+ igcmod = 0.0
+ igbmod = 0.0
+ rgatemod = 0.0
+ rbodymod = 1.0
+ trnqsmod = 0.0
+ acnqsmod = 0.0
+ fnoimod = 1.0
+ tnoimod = 1.0
+ permod = 1.0
+ geomod = 0.0
+ rdsmod = 0.0
+ tempmod = 0.0
+ lintnoi = -6.0e-8
+ vfbsdoff = 0.0
+ lambda = 0.0
+ vtl = 0.0
+ lc = 5.0e-9
+ xn = 3.0
+ rnoia = 0.577
+ rnoib = 0.37
+ tnoia = 1.5
+ tnoib = 3.5
* BSIM4 - Process Parameters
+ epsrox = 3.9
+ toxe = {4.23e-009*sky130_fd_pr__pfet_01v8_hvt__toxe_mult+sky130_fd_pr__pfet_01v8_hvt__toxe_slope_spectre*(4.23e-09*sky130_fd_pr__pfet_01v8_hvt__toxe_mult*(sky130_fd_pr__pfet_01v8_hvt__toxe_slope/sqrt(l*w*mult)))}
+ dtox = 0.0
+ ndep = 1.7e+17
+ nsd = 1.0e+20
+ rshg = 0.1
+ rsh = {1*sky130_fd_pr__pfet_01v8_hvt__rshp_mult}
* Threshold Voltage Parameters
+ vth0 = {-1.06+sky130_fd_pr__pfet_01v8_hvt__vth0_diff_2+sky130_fd_pr__pfet_01v8_hvt__vth0_slope_spectre*(sky130_fd_pr__pfet_01v8_hvt__vth0_slope/sqrt(l*w*mult))}
+ k1 = 0.51618769
+ k2 = {-0.00083146984+sky130_fd_pr__pfet_01v8_hvt__k2_diff_2}
+ k3 = -13.778
+ dvt0 = 4.05
+ dvt1 = 0.3
+ dvt2 = 0.03
+ dvt0w = -4.254
+ dvt1w = 1147200.0
+ dvt2w = -0.00896
+ w0 = 0.0
+ k3b = 2.0
* NEW BSIM4 Parameters for Level 54
+ phin = 0.0
+ lpe0 = 0.0
+ lpeb = 0.0
+ vbm = -3.0
+ dvtp0 = 0.0
+ dvtp1 = 0.0
* Mobility Parameters
+ vsat = {47380+sky130_fd_pr__pfet_01v8_hvt__vsat_diff_2}
+ ua = {-8.5137452e-010+sky130_fd_pr__pfet_01v8_hvt__ua_diff_2}
+ ub = {6.7844555e-019+sky130_fd_pr__pfet_01v8_hvt__ub_diff_2}
+ uc = -6.4729555e-11
+ rdsw = {531.92+sky130_fd_pr__pfet_01v8_hvt__rdsw_diff_2}
+ prwb = -0.32348
+ prwg = 0.02
+ wr = 1.0
+ u0 = {0.0067181+sky130_fd_pr__pfet_01v8_hvt__u0_diff_2}
+ a0 = {0.97582+sky130_fd_pr__pfet_01v8_hvt__a0_diff_2}
+ keta = {-0.013695+sky130_fd_pr__pfet_01v8_hvt__keta_diff_2}
+ a1 = 0.0
+ a2 = 1.0
+ ags = {0.60209+sky130_fd_pr__pfet_01v8_hvt__ags_diff_2}
+ b0 = {0+sky130_fd_pr__pfet_01v8_hvt__b0_diff_2}
+ b1 = {0+sky130_fd_pr__pfet_01v8_hvt__b1_diff_2}
* BSIM4 - Mobility Parameters
+ eu = 1.67
+ rdswmin = 0.0
+ rdw = 0.0
+ rdwmin = 0.0
+ rsw = 0.0
+ rswmin = 0.0
* Subthreshold Current Parameters
+ voff = {-0.16525691+sky130_fd_pr__pfet_01v8_hvt__voff_diff_2+sky130_fd_pr__pfet_01v8_hvt__voff_slope_spectre*(sky130_fd_pr__pfet_01v8_hvt__voff_slope/sqrt(l*w*mult))}
+ nfactor = {1.6996765+sky130_fd_pr__pfet_01v8_hvt__nfactor_diff_2+sky130_fd_pr__pfet_01v8_hvt__nfactor_slope_spectre*(sky130_fd_pr__pfet_01v8_hvt__nfactor_slope/sqrt(l*w*mult))}
+ up = 0.0
+ ud = 0.0
+ lp = 1.0
+ tvfbsdoff = 0.0
+ tvoff = {0+sky130_fd_pr__pfet_01v8_hvt__tvoff_diff_2}
+ cit = 1.0e-5
+ cdsc = 0.0
+ cdscb = 0.0
+ cdscd = 0.0
+ eta0 = {0.22+sky130_fd_pr__pfet_01v8_hvt__eta0_diff_2}
+ etab = -0.82588402
+ dsub = 0.77677847
* BSIM4 - Sub-threshold parameters
+ voffl = 0.0
+ minv = 0.0
* Rout Parameters
+ pclm = {0.80609743+sky130_fd_pr__pfet_01v8_hvt__pclm_diff_2}
+ pdiblc1 = 0.039
+ pdiblc2 = 0.00043
+ pdiblcb = -0.025
+ drout = 1.0
+ pscbe1 = 7.8630226e+8
+ pscbe2 = 9.1767556e-9
+ pvag = 0.0
+ delta = 0.01
+ alpha0 = 1.0e-10
+ alpha1 = 1.0e-10
+ beta0 = 7.6682293
* BSIM4 - Rout Parameters
+ fprout = 0.0
+ pdits = {0+sky130_fd_pr__pfet_01v8_hvt__pdits_diff_2}
+ pditsl = 0.0
+ pditsd = {0+sky130_fd_pr__pfet_01v8_hvt__pditsd_diff_2}
* BSIM4 - Gate Induced Drain Leakage Model Parameters
+ agidl = {5.0805694e-010+sky130_fd_pr__pfet_01v8_hvt__agidl_diff_2}
+ bgidl = {1e009+sky130_fd_pr__pfet_01v8_hvt__bgidl_diff_2}
+ cgidl = {300+sky130_fd_pr__pfet_01v8_hvt__cgidl_diff_2}
+ egidl = 0.1
* BSIM4 - Gate Leakage Current Parameters
+ aigbacc = 0.43
+ bigbacc = 0.054
+ cigbacc = 0.075
+ nigbacc = 1.0
+ aigbinv = 0.35
+ bigbinv = 0.03
+ cigbinv = 0.006
+ eigbinv = 1.1
+ nigbinv = 3.0
+ aigc = 0.43
+ bigc = 0.054
+ cigc = 0.075
+ nigc = 1.0
+ aigsd = 0.43
+ bigsd = 0.054
+ cigsd = 0.075
+ dlcig = 0.0
+ poxedge = 1.0
+ pigcd = 1.0
+ ntox = 1.0
+ toxref = 4.23e-9
* Temperature Effects Parameters
+ kt1 = {-0.47906474+sky130_fd_pr__pfet_01v8_hvt__kt1_diff_2}
+ kt2 = -0.048559181
+ at = 61761.743
+ ute = -1.0481598
+ ua1 = -4.3040399e-10
+ ub1 = 8.9488555e-19
+ uc1 = 6.6918782e-11
+ kt1l = 0.0
+ prt = 0.0
* BSIM4 - High Speed RF Model Parameters
+ xrcrg1 = 12.0
+ xrcrg2 = 1.0
+ rbpb = 50.0
+ rbpd = 50.0
+ rbps = 50.0
+ rbdb = 50.0
+ rbsb = 50.0
+ gbmin = 1.0e-12
* BSIM4 - Flicker and Thermal Noise Parameters
+ noia = 1.2e+41
+ noib = 2.0e+25
+ noic = 0.0
+ em = 4.1000000e+7
+ af = 1.0
+ ef = 0.88
+ kf = 0.0
+ ntnoi = 1.0
* BSIM4 - Layout Dependent Parasitic Model Parameters
+ dmcg = 0.0
+ dmcgt = 0.0
+ dmdg = 0.0
+ xgw = 0.0
+ xgl = 0.0
+ ngcon = 1.0
* Diode DC IV Parameters
* BSIM4 - Diode DC IV parameters
+ diomod = 1.0
+ njs = 1.2556
+ jss = 2.17e-5
+ jsws = 8.200000000000001e-10
+ xtis = 2.0
+ bvs = 12.8
+ xjbvs = 1.0
+ ijthsrev = 0.1
+ ijthsfwd = 0.1
* Diode and FET Capacitance Parameters
+ tpb = 0.0019551
+ tpbsw = 0.00014242
+ tpbswg = 0.0
+ tcj = 0.0012407
+ tcjsw = 0.0
+ tcjswg = 2.0e-12
+ cgdo = {6e-11*sky130_fd_pr__pfet_01v8_hvt__overlap_mult}
+ cgso = {6e-11*sky130_fd_pr__pfet_01v8_hvt__overlap_mult}
+ cgbo = 0.0
+ capmod = 2.0
+ xpart = 0.0
+ cgsl = {7.6e-012*sky130_fd_pr__pfet_01v8_hvt__overlap_mult}
+ cgdl = {7.6e-012*sky130_fd_pr__pfet_01v8_hvt__overlap_mult}
+ cf = 1.2e-11
+ clc = 1.0e-7
+ cle = 0.6
+ dlc = {-2.56e-09+sky130_fd_pr__pfet_01v8_hvt__dlc_diff+sky130_fd_pr__pfet_01v8_hvt__dlc_rotweak}
+ dwc = {0+sky130_fd_pr__pfet_01v8_hvt__dwc_diff}
+ vfbcv = -0.1446893
+ acde = 0.552
+ moin = 14.504
+ noff = 4.0
+ voffcv = -0.1375
+ ngate = 1.0e+23
+ lwc = 0.0
+ llc = 0.0
+ lwlc = 0.0
+ wlc = 0.0
+ wwc = 0.0
+ wwlc = 0.0
* BSIM4 - FET and Diode capacitance parameters
+ ckappas = 0.6
+ cjs = {0.00075561*sky130_fd_pr__pfet_01v8_hvt__ajunction_mult}
+ mjs = 0.34629
+ pbs = 0.6587
+ cjsws = {9.2435e-011*sky130_fd_pr__pfet_01v8_hvt__pjunction_mult}
+ mjsws = 0.26859
+ pbsws = 0.7418
+ cjswgs = {2.4701e-010*sky130_fd_pr__pfet_01v8_hvt__pjunction_mult}
+ mjswgs = 0.70393
+ pbswgs = 1.3925
* Stress Parameters
+ saref = 2.75e-6
+ sbref = 2.74e-6
+ wlod = .0e-6
+ kvth0 = 2.65e-8
+ lkvth0 = 0.0
+ wkvth0 = .25e-6
+ pkvth0 = 0.0
+ llodvth = 0.0
+ wlodvth = 1.0
+ stk2 = 0.0
+ lodk2 = 1.0
+ lodeta0 = 1.0
+ ku0 = 4.5e-8
+ lku0 = 0.0
+ wku0 = .25e-6
+ pku0 = 0.0
+ llodku0 = 0.0
+ wlodku0 = 1.0
+ kvsat = 0.4
+ steta0 = 0.0
+ tku0 = 0.0
.model sky130_fd_pr__pfet_01v8_hvt__model.3 pmos
* DC IV MOS Parameters
+ lmin = 1.995e-06 lmax = 2.005e-06 wmin = 9.95e-07 wmax = 1.005e-6
+ level = 54.0
+ tnom = 30.0
+ version = 4.5
+ toxm = 4.23e-9
+ xj = 1.5e-7
+ lln = 1.0
+ lwn = 1.0
+ wln = 1.0
+ wwn = 1.0
+ lint = {-1.176e-008+sky130_fd_pr__pfet_01v8_hvt__lint_diff}
+ ll = 0.0
+ lw = 0.0
+ lwl = 0.0
+ wint = {9.364e-009+sky130_fd_pr__pfet_01v8_hvt__wint_diff}
+ wl = 0.0
+ ww = 0.0
+ wwl = 0.0
+ xl = 0.0
+ xw = 0.0
+ mobmod = 0.0
+ binunit = 2.0
+ dwg = -5.722e-9
+ dwb = -1.7864e-8
* BSIM4 - Model Selectors
+ igcmod = 0.0
+ igbmod = 0.0
+ rgatemod = 0.0
+ rbodymod = 1.0
+ trnqsmod = 0.0
+ acnqsmod = 0.0
+ fnoimod = 1.0
+ tnoimod = 1.0
+ permod = 1.0
+ geomod = 0.0
+ rdsmod = 0.0
+ tempmod = 0.0
+ lintnoi = -6.0e-8
+ vfbsdoff = 0.0
+ lambda = 0.0
+ vtl = 0.0
+ lc = 5.0e-9
+ xn = 3.0
+ rnoia = 0.577
+ rnoib = 0.37
+ tnoia = 1.5
+ tnoib = 3.5
* BSIM4 - Process Parameters
+ epsrox = 3.9
+ toxe = {4.23e-009*sky130_fd_pr__pfet_01v8_hvt__toxe_mult+sky130_fd_pr__pfet_01v8_hvt__toxe_slope_spectre*(4.23e-09*sky130_fd_pr__pfet_01v8_hvt__toxe_mult*(sky130_fd_pr__pfet_01v8_hvt__toxe_slope/sqrt(l*w*mult)))}
+ dtox = 0.0
+ ndep = 1.7e+17
+ nsd = 1.0e+20
+ rshg = 0.1
+ rsh = {1*sky130_fd_pr__pfet_01v8_hvt__rshp_mult}
* Threshold Voltage Parameters
+ vth0 = {-1.09+sky130_fd_pr__pfet_01v8_hvt__vth0_diff_3+sky130_fd_pr__pfet_01v8_hvt__vth0_slope_spectre*(sky130_fd_pr__pfet_01v8_hvt__vth0_slope/sqrt(l*w*mult))}
+ k1 = 0.43605257
+ k2 = {0.032821892+sky130_fd_pr__pfet_01v8_hvt__k2_diff_3}
+ k3 = -13.778
+ dvt0 = 4.05
+ dvt1 = 0.3
+ dvt2 = 0.03
+ dvt0w = -4.254
+ dvt1w = 1147200.0
+ dvt2w = -0.00896
+ w0 = 0.0
+ k3b = 2.0
* NEW BSIM4 Parameters for Level 54
+ phin = 0.0
+ lpe0 = 0.0
+ lpeb = 0.0
+ vbm = -3.0
+ dvtp0 = 0.0
+ dvtp1 = 0.0
* Mobility Parameters
+ vsat = {53438+sky130_fd_pr__pfet_01v8_hvt__vsat_diff_3}
+ ua = {-4.2142258e-010+sky130_fd_pr__pfet_01v8_hvt__ua_diff_3}
+ ub = {5.0507813e-019+sky130_fd_pr__pfet_01v8_hvt__ub_diff_3}
+ uc = -6.9850429e-11
+ rdsw = {531.92+sky130_fd_pr__pfet_01v8_hvt__rdsw_diff_3}
+ prwb = -0.32348
+ prwg = 0.02
+ wr = 1.0
+ u0 = {0.0088976+sky130_fd_pr__pfet_01v8_hvt__u0_diff_3}
+ a0 = {1.1633+sky130_fd_pr__pfet_01v8_hvt__a0_diff_3}
+ keta = {-0.012264+sky130_fd_pr__pfet_01v8_hvt__keta_diff_3}
+ a1 = 0.0
+ a2 = 0.8
+ ags = {0.39463+sky130_fd_pr__pfet_01v8_hvt__ags_diff_3}
+ b0 = {0+sky130_fd_pr__pfet_01v8_hvt__b0_diff_3}
+ b1 = {0+sky130_fd_pr__pfet_01v8_hvt__b1_diff_3}
* BSIM4 - Mobility Parameters
+ eu = 1.67
+ rdswmin = 0.0
+ rdw = 0.0
+ rdwmin = 0.0
+ rsw = 0.0
+ rswmin = 0.0
* Subthreshold Current Parameters
+ voff = {-0.17697341+sky130_fd_pr__pfet_01v8_hvt__voff_diff_3+sky130_fd_pr__pfet_01v8_hvt__voff_slope_spectre*(sky130_fd_pr__pfet_01v8_hvt__voff_slope/sqrt(l*w*mult))}
+ nfactor = {1.8787862+sky130_fd_pr__pfet_01v8_hvt__nfactor_diff_3+sky130_fd_pr__pfet_01v8_hvt__nfactor_slope_spectre*(sky130_fd_pr__pfet_01v8_hvt__nfactor_slope/sqrt(l*w*mult))}
+ up = 0.0
+ ud = 0.0
+ lp = 1.0
+ tvfbsdoff = 0.0
+ tvoff = {0+sky130_fd_pr__pfet_01v8_hvt__tvoff_diff_3}
+ cit = 1.0e-5
+ cdsc = 0.0
+ cdscb = 0.0
+ cdscd = 0.0
+ eta0 = {0.0005+sky130_fd_pr__pfet_01v8_hvt__eta0_diff_3}
+ etab = -0.00049875119
+ dsub = 0.26129899
* BSIM4 - Sub-threshold parameters
+ voffl = 0.0
+ minv = 0.0
* Rout Parameters
+ pclm = {0.63260008+sky130_fd_pr__pfet_01v8_hvt__pclm_diff_3}
+ pdiblc1 = 0.39
+ pdiblc2 = 0.00043
+ pdiblcb = -0.025
+ drout = 0.56
+ pscbe1 = 7.9224047e+8
+ pscbe2 = 9.3515819e-9
+ pvag = 0.0
+ delta = 0.01
+ alpha0 = 1.0e-10
+ alpha1 = 1.0e-10
+ beta0 = 6.7757668
* BSIM4 - Rout Parameters
+ fprout = 0.0
+ pdits = {0+sky130_fd_pr__pfet_01v8_hvt__pdits_diff_3}
+ pditsl = 0.0
+ pditsd = {0+sky130_fd_pr__pfet_01v8_hvt__pditsd_diff_3}
* BSIM4 - Gate Induced Drain Leakage Model Parameters
+ agidl = {1.3029923e-010+sky130_fd_pr__pfet_01v8_hvt__agidl_diff_3}
+ bgidl = {1e009+sky130_fd_pr__pfet_01v8_hvt__bgidl_diff_3}
+ cgidl = {300+sky130_fd_pr__pfet_01v8_hvt__cgidl_diff_3}
+ egidl = 0.1
* BSIM4 - Gate Leakage Current Parameters
+ aigbacc = 0.43
+ bigbacc = 0.054
+ cigbacc = 0.075
+ nigbacc = 1.0
+ aigbinv = 0.35
+ bigbinv = 0.03
+ cigbinv = 0.006
+ eigbinv = 1.1
+ nigbinv = 3.0
+ aigc = 0.43
+ bigc = 0.054
+ cigc = 0.075
+ nigc = 1.0
+ aigsd = 0.43
+ bigsd = 0.054
+ cigsd = 0.075
+ dlcig = 0.0
+ poxedge = 1.0
+ pigcd = 1.0
+ ntox = 1.0
+ toxref = 4.23e-9
* Temperature Effects Parameters
+ kt1 = {-0.46892+sky130_fd_pr__pfet_01v8_hvt__kt1_diff_3}
+ kt2 = -0.052362
+ at = 79192.0
+ ute = -0.067643
+ ua1 = 2.8149e-9
+ ub1 = -1.658e-18
+ uc1 = -2.9687e-11
+ kt1l = 0.0
+ prt = 0.0
* BSIM4 - High Speed RF Model Parameters
+ xrcrg1 = 12.0
+ xrcrg2 = 1.0
+ rbpb = 50.0
+ rbpd = 50.0
+ rbps = 50.0
+ rbdb = 50.0
+ rbsb = 50.0
+ gbmin = 1.0e-12
* BSIM4 - Flicker and Thermal Noise Parameters
+ noia = 1.2e+41
+ noib = 2.0e+25
+ noic = 0.0
+ em = 4.1000000e+7
+ af = 1.0
+ ef = 0.88
+ kf = 0.0
+ ntnoi = 1.0
* BSIM4 - Layout Dependent Parasitic Model Parameters
+ dmcg = 0.0
+ dmcgt = 0.0
+ dmdg = 0.0
+ xgw = 0.0
+ xgl = 0.0
+ ngcon = 1.0
* Diode DC IV Parameters
* BSIM4 - Diode DC IV parameters
+ diomod = 1.0
+ njs = 1.2556
+ jss = 2.17e-5
+ jsws = 8.200000000000001e-10
+ xtis = 2.0
+ bvs = 12.8
+ xjbvs = 1.0
+ ijthsrev = 0.1
+ ijthsfwd = 0.1
* Diode and FET Capacitance Parameters
+ tpb = 0.0019551
+ tpbsw = 0.00014242
+ tpbswg = 0.0
+ tcj = 0.0012407
+ tcjsw = 0.0
+ tcjswg = 2.0e-12
+ cgdo = {6e-11*sky130_fd_pr__pfet_01v8_hvt__overlap_mult}
+ cgso = {6e-11*sky130_fd_pr__pfet_01v8_hvt__overlap_mult}
+ cgbo = 0.0
+ capmod = 2.0
+ xpart = 0.0
+ cgsl = {7.6e-012*sky130_fd_pr__pfet_01v8_hvt__overlap_mult}
+ cgdl = {7.6e-012*sky130_fd_pr__pfet_01v8_hvt__overlap_mult}
+ cf = 1.2e-11
+ clc = 1.0e-7
+ cle = 0.6
+ dlc = {-2.56e-09+sky130_fd_pr__pfet_01v8_hvt__dlc_diff+sky130_fd_pr__pfet_01v8_hvt__dlc_rotweak}
+ dwc = {0+sky130_fd_pr__pfet_01v8_hvt__dwc_diff}
+ vfbcv = -0.1446893
+ acde = 0.552
+ moin = 14.504
+ noff = 4.0
+ voffcv = -0.1375
+ ngate = 1.0e+23
+ lwc = 0.0
+ llc = 0.0
+ lwlc = 0.0
+ wlc = 0.0
+ wwc = 0.0
+ wwlc = 0.0
* BSIM4 - FET and Diode capacitance parameters
+ ckappas = 0.6
+ cjs = {0.00075561*sky130_fd_pr__pfet_01v8_hvt__ajunction_mult}
+ mjs = 0.34629
+ pbs = 0.6587
+ cjsws = {9.2435e-011*sky130_fd_pr__pfet_01v8_hvt__pjunction_mult}
+ mjsws = 0.26859
+ pbsws = 0.7418
+ cjswgs = {2.4701e-010*sky130_fd_pr__pfet_01v8_hvt__pjunction_mult}
+ mjswgs = 0.70393
+ pbswgs = 1.3925
* Stress Parameters
+ saref = 3.0e-6
+ sbref = 3.0e-6
+ wlod = .0e-6
+ kvth0 = 2.65e-8
+ lkvth0 = 0.0
+ wkvth0 = .25e-6
+ pkvth0 = 0.0
+ llodvth = 0.0
+ wlodvth = 1.0
+ stk2 = 0.0
+ lodk2 = 1.0
+ lodeta0 = 1.0
+ ku0 = 4.5e-8
+ lku0 = 0.0
+ wku0 = .25e-6
+ pku0 = 0.0
+ llodku0 = 0.0
+ wlodku0 = 1.0
+ kvsat = 0.4
+ steta0 = 0.0
+ tku0 = 0.0
.model sky130_fd_pr__pfet_01v8_hvt__model.4 pmos
* DC IV MOS Parameters
+ lmin = 3.995e-06 lmax = 4.005e-06 wmin = 9.95e-07 wmax = 1.005e-6
+ level = 54.0
+ tnom = 30.0
+ version = 4.5
+ toxm = 4.23e-9
+ xj = 1.5e-7
+ lln = 1.0
+ lwn = 1.0
+ wln = 1.0
+ wwn = 1.0
+ lint = {-1.176e-008+sky130_fd_pr__pfet_01v8_hvt__lint_diff}
+ ll = 0.0
+ lw = 0.0
+ lwl = 0.0
+ wint = {9.364e-009+sky130_fd_pr__pfet_01v8_hvt__wint_diff}
+ wl = 0.0
+ ww = 0.0
+ wwl = 0.0
+ xl = 0.0
+ xw = 0.0
+ mobmod = 0.0
+ binunit = 2.0
+ dwg = -5.722e-9
+ dwb = -1.7864e-8
* BSIM4 - Model Selectors
+ igcmod = 0.0
+ igbmod = 0.0
+ rgatemod = 0.0
+ rbodymod = 1.0
+ trnqsmod = 0.0
+ acnqsmod = 0.0
+ fnoimod = 1.0
+ tnoimod = 1.0
+ permod = 1.0
+ geomod = 0.0
+ rdsmod = 0.0
+ tempmod = 0.0
+ lintnoi = -6.0e-8
+ vfbsdoff = 0.0
+ lambda = 0.0
+ vtl = 0.0
+ lc = 5.0e-9
+ xn = 3.0
+ rnoia = 0.577
+ rnoib = 0.37
+ tnoia = 1.5
+ tnoib = 3.5
* BSIM4 - Process Parameters
+ epsrox = 3.9
+ toxe = {4.23e-009*sky130_fd_pr__pfet_01v8_hvt__toxe_mult+sky130_fd_pr__pfet_01v8_hvt__toxe_slope_spectre*(4.23e-09*sky130_fd_pr__pfet_01v8_hvt__toxe_mult*(sky130_fd_pr__pfet_01v8_hvt__toxe_slope/sqrt(l*w*mult)))}
+ dtox = 0.0
+ ndep = 1.7e+17