* Copyright 2020 The SkyWater PDK Authors
*
* Licensed under the Apache License, Version 2.0 (the "License");
* you may not use this file except in compliance with the License.
* You may obtain a copy of the License at
*
*     https://www.apache.org/licenses/LICENSE-2.0
*
* Unless required by applicable law or agreed to in writing, software
* distributed under the License is distributed on an "AS IS" BASIS,
* WITHOUT WARRANTIES OR CONDITIONS OF ANY KIND, either express or implied.
* See the License for the specific language governing permissions and
* limitations under the License.

* SKY130 Spice File.
.param sky130_fd_pr__pfet_01v8_hvt__toxe_slope_spectre = 0.0
.param sky130_fd_pr__pfet_01v8_hvt__vth0_slope_spectre = 0.0
.param sky130_fd_pr__pfet_01v8_hvt__voff_slope_spectre = 0.0
.param sky130_fd_pr__pfet_01v8_hvt__nfactor_slope_spectre = 0.0
* statistics {
*   process {
*   }
*   mismatch {
*     vary sky130_fd_pr__pfet_01v8_hvt__toxe_slope_spectre dist=gauss std = 1.0
*     vary sky130_fd_pr__pfet_01v8_hvt__vth0_slope_spectre dist=gauss std = 1.0
*     vary sky130_fd_pr__pfet_01v8_hvt__voff_slope_spectre dist=gauss std = 1.0
*     vary sky130_fd_pr__pfet_01v8_hvt__nfactor_slope_spectre dist=gauss std = 1.0
*   }
* }
.subckt  sky130_fd_pr__pfet_01v8_hvt d g s b
+ 
.param  l = 1 w = 1 ad = 0 as = 0 pd = 0 ps = 0 nrd = 0 nrs = 0 sa = 0 sb = 0 sd = 0 mult = 1 nf = 1.0
msky130_fd_pr__pfet_01v8_hvt d g s b sky130_fd_pr__pfet_01v8_hvt__model l = {l} w = {w} ad = {ad} as = {as} pd = {pd} ps = {ps} nrd = {nrd} nrs = {nrs} sa = {sa} sb = {sb} sd = {sd} nf = {nf}
.model sky130_fd_pr__pfet_01v8_hvt__model.0 pmos
* Model Flag Parameters
+ lmin = 2.0e-05 lmax = 0.0001 wmin = 7.0e-06 wmax = 0.0001
+ level = 54.0
+ version = 4.5
+ binunit = 2.0
+ mobmod = 0.0
+ capmod = 2.0
+ igcmod = 0.0
+ igbmod = 0.0
+ geomod = 0.0
+ diomod = 1.0
+ rdsmod = 0.0
+ rbodymod = 1.0
+ rgatemod = 0.0
+ permod = 1.0
+ acnqsmod = 0.0
+ trnqsmod = 0.0
+ fnoimod = 1.0
+ tnoimod = 1.0
+ tempmod = 0.0
* Process Parameters
+ toxe = {4.01004e-09+sky130_fd_pr__pfet_01v8_hvt__toxe_slope_spectre*(4.23e-09*0.948*(sky130_fd_pr__pfet_01v8_hvt__toxe_slope/sqrt(l*w*mult)))}
+ toxm = 4.23e-9
+ dtox = 0.0
+ epsrox = 3.9
+ xj = 1.5e-7
+ ngate = 1.0e+23
+ ndep = 1.7e+17
+ nsd = 1.0e+20
+ rsh = 1.0
+ rshg = 0.1
* Basic Model Parameters
+ wint = -2.2811e-8
+ lint = 5.565e-9
+ vth0 = {-1.109639+sky130_fd_pr__pfet_01v8_hvt__vth0_slope_spectre*(sky130_fd_pr__pfet_01v8_hvt__vth0_slope/sqrt(l*w*mult))}
+ k1 = 0.43657182
+ k2 = 0.027786788
+ k3 = -13.778
+ k3b = 2.0
+ w0 = 0.0
+ dvt0 = 4.05
+ dvt1 = 0.3
+ dvt2 = 0.03
+ dvt0w = -4.254
+ dvt1w = 1147200.0
+ dvt2w = -0.00896
+ dsub = 0.56
+ minv = 0.0
+ voffl = 0.0
+ lpe0 = 0.0
+ lpeb = 0.0
+ vbm = -3.0
+ dvtp0 = 0.0
+ dvtp1 = 0.0
+ phin = 0.0
+ cdsc = 0.0
+ cdscb = 0.0
+ cdscd = 0.0
+ cit = 1.0e-5
+ voff = {-0.22271988+sky130_fd_pr__pfet_01v8_hvt__voff_slope_spectre*(sky130_fd_pr__pfet_01v8_hvt__voff_slope/sqrt(l*w*mult))}
+ nfactor = {2.2497576+sky130_fd_pr__pfet_01v8_hvt__nfactor_slope_spectre*(sky130_fd_pr__pfet_01v8_hvt__nfactor_slope/sqrt(l*w*mult))}
+ eta0 = 0.08
+ etab = -0.07
+ u0 = 0.019607598
+ ua = -2.7648397e-10
+ ub = 2.34385173e-18
+ uc = -7.7670696e-11
+ ud = 0.0
+ up = 0.0
+ lp = 1.0
+ eu = 1.67
+ vtl = 0.0
+ xn = 3.0
+ vsat = 200000.0
+ a0 = 1.5017417
+ ags = 0.38244371
+ a1 = 0.0
+ a2 = 1.0
+ b0 = 0.0
+ b1 = 0.0
+ keta = -0.013169082
+ dwg = -5.722e-9
+ dwb = -1.7864e-8
+ pclm = 0.075489662
+ pdiblc1 = 0.39
+ pdiblc2 = 0.0036275994
+ pdiblcb = -9.5744039e-5
+ drout = 0.56
+ pscbe1 = 746475130.0
+ pscbe2 = 9.5049925e-9
+ pvag = 0.0
+ delta = 0.01
+ fprout = 0.0
+ pdits = 0.0
+ pditsl = 0.0
+ pditsd = 0.0
+ lambda = 0.0
+ lc = 5.0e-9
* Parameters FOR Asymmetric AND Bias-Dependent RDS Model
+ rdsw = 531.92
+ rsw = 0.0
+ rdw = 0.0
+ rdswmin = 0.0
+ rdwmin = 0.0
+ rswmin = 0.0
+ prwb = -0.32348
+ prwg = 0.02
+ wr = 1.0
* Impact Ionization Current Model Parameters
+ alpha0 = 1.0e-10
+ alpha1 = 1.0e-10
+ beta0 = 4.7923891
* Gidl Induced Drain Leakage Model Parameters
+ agidl = 1.0e-10
+ bgidl = 1154444600.0
+ cgidl = 300.0
+ egidl = 0.1
* Gate Dielectric Tunneling Current Model Parameters
+ toxref = 4.23e-9
+ dlcig = 0.0
+ aigbacc = 0.43
+ bigbacc = 0.054
+ cigbacc = 0.075
+ nigbacc = 1.0
+ aigbinv = 0.35
+ bigbinv = 0.03
+ cigbinv = 0.006
+ eigbinv = 1.1
+ nigbinv = 3.0
+ aigc = 0.43
+ bigc = 0.054
+ cigc = 0.075
+ aigsd = 0.43
+ bigsd = 0.054
+ cigsd = 0.075
+ nigc = 1.0
+ poxedge = 1.0
+ pigcd = 1.0
+ ntox = 1.0
+ vfbsdoff = 0.0
* Charge AND Capacitance Model Parameters
+ dlc = 1.4765e-8
+ dwc = -3.2175e-8
+ xpart = 0.0
+ cgso = 5.46384e-11
+ cgdo = 5.46384e-11
+ cgbo = 0.0
+ cgdl = 6.920864e-12
+ cgsl = 6.920864e-12
+ clc = 1.0e-7
+ cle = 0.6
+ cf = 1.2e-11
+ ckappas = 0.6
+ vfbcv = -0.1446893
+ acde = 0.552
+ moin = 14.504
+ noff = 4.0
+ voffcv = -0.1375
* High-Speed/RF Model Parameters
+ xrcrg1 = 12.0
+ xrcrg2 = 1.0
+ rbpb = 50.0
+ rbpd = 50.0
+ rbps = 50.0
+ rbdb = 50.0
+ rbsb = 50.0
+ gbmin = 1.0e-12
* Flicker AND Thermal Noise Model Parameters
+ ef = 0.88
+ noia = 1.2e+41
+ noib = 2.0e+25
+ noic = 0.0
+ em = 41000000.0
+ ntnoi = 1.0
+ lintnoi = -6.0e-8
+ af = 1.0
+ kf = 0.0
+ tnoia = 1.5
+ tnoib = 3.5
+ rnoia = 0.577
+ rnoib = 0.37
* Layout-Dependent Parasitics Model Parameters
+ xl = 0.0
+ xw = 0.0
+ dmcg = 0.0
+ dmdg = 0.0
+ dmcgt = 0.0
+ xgw = 0.0
+ xgl = 0.0
+ ngcon = 1.0
* Asymmetric Source/Drain Junction Diode Model Parameters
+ jss = 2.17e-5
+ jsws = 8.2e-10
+ ijthsfwd = 0.1
+ ijthsrev = 0.1
+ bvs = 12.8
+ xjbvs = 1.0
+ pbs = 0.6587
+ cjs = 0.000672644022
+ mjs = 0.34629
+ pbsws = 0.7418
+ cjsws = 8.60458928e-11
+ mjsws = 0.26859
+ pbswgs = 1.3925
+ cjswgs = 2.299366688e-10
+ mjswgs = 0.70393
* Temperature Dependence Parameters
+ tnom = 30.0
+ kt1 = -0.44169
+ kt2 = -0.037961
+ at = 0.0
+ ute = -0.30066
+ ua1 = 2.2116e-9
+ ub1 = -7.9359e-19
+ uc1 = 1.1985e-10
+ kt1l = 0.0
+ prt = 0.0
+ tvoff = 0.0
+ njs = 1.2556
+ tpb = 0.0019551
+ tcj = 0.0012407
+ tpbsw = 0.00014242
+ tcjsw = 0.0
+ tpbswg = 0.0
+ tcjswg = 2.0e-12
+ xtis = 2.0
+ tvfbsdoff = 0.0
* DW AND DL Parameters
+ ll = 0.0
+ wl = 0.0
+ lln = 1.0
+ wln = 1.0
+ lw = 0.0
+ ww = 0.0
+ lwn = 1.0
+ wwn = 1.0
+ lwl = 0.0
+ wwl = 0.0
+ llc = 0.0
+ wlc = 0.0
+ lwc = 0.0
+ wwc = 0.0
+ lwlc = 0.0
+ wwlc = 0.0
* Stress Parameters
+ saref = 3.0e-6
+ sbref = 3.0e-6
+ kvth0 = 2.65e-8
+ lkvth0 = 0.0
+ wkvth0 = 2.5e-7
+ pkvth0 = 0.0
+ llodvth = 0.0
+ wlodvth = 1.0
+ wlod = 0.0
+ stk2 = 0.0
+ lodk2 = 1.0
+ lodeta0 = 1.0
+ ku0 = 4.5e-8
+ lku0 = 0.0
+ wku0 = 2.5e-7
+ pku0 = 0.0
+ tku0 = 0.0
+ llodku0 = 0.0
+ wlodku0 = 1.0
+ kvsat = 0.4
+ steta0 = 0.0
* Well Proximity Effect Parameters
.model sky130_fd_pr__pfet_01v8_hvt__model.1 pmos
* Model Flag Parameters
+ lmin = 8.0e-06 lmax = 2.0e-05 wmin = 7.0e-06 wmax = 0.0001
+ level = 54.0
+ version = 4.5
+ binunit = 2.0
+ mobmod = 0.0
+ capmod = 2.0
+ igcmod = 0.0
+ igbmod = 0.0
+ geomod = 0.0
+ diomod = 1.0
+ rdsmod = 0.0
+ rbodymod = 1.0
+ rgatemod = 0.0
+ permod = 1.0
+ acnqsmod = 0.0
+ trnqsmod = 0.0
+ fnoimod = 1.0
+ tnoimod = 1.0
+ tempmod = 0.0
* Process Parameters
+ toxe = {4.01004e-09+sky130_fd_pr__pfet_01v8_hvt__toxe_slope_spectre*(4.23e-09*0.948*(sky130_fd_pr__pfet_01v8_hvt__toxe_slope/sqrt(l*w*mult)))}
+ toxm = 4.23e-9
+ dtox = 0.0
+ epsrox = 3.9
+ xj = 1.5e-7
+ ngate = 1.0e+23
+ ndep = 1.7e+17
+ nsd = 1.0e+20
+ rsh = 1.0
+ rshg = 0.1
* Basic Model Parameters
+ wint = -2.2811e-8
+ lint = 5.565e-9
+ vth0 = {-1.109639+sky130_fd_pr__pfet_01v8_hvt__vth0_slope_spectre*(sky130_fd_pr__pfet_01v8_hvt__vth0_slope/sqrt(l*w*mult))}
+ k1 = 0.43657182
+ k2 = 0.027786788
+ k3 = -13.778
+ k3b = 2.0
+ w0 = 0.0
+ dvt0 = 4.05
+ dvt1 = 0.3
+ dvt2 = 0.03
+ dvt0w = -4.254
+ dvt1w = 1147200.0
+ dvt2w = -0.00896
+ dsub = 0.56
+ minv = 0.0
+ voffl = 0.0
+ lpe0 = 0.0
+ lpeb = 0.0
+ vbm = -3.0
+ dvtp0 = 0.0
+ dvtp1 = 0.0
+ phin = 0.0
+ cdsc = 0.0
+ cdscb = 0.0
+ cdscd = 0.0
+ cit = 1.0e-5
+ voff = {-0.22271988+sky130_fd_pr__pfet_01v8_hvt__voff_slope_spectre*(sky130_fd_pr__pfet_01v8_hvt__voff_slope/sqrt(l*w*mult))}
+ nfactor = {2.2497576+sky130_fd_pr__pfet_01v8_hvt__nfactor_slope_spectre*(sky130_fd_pr__pfet_01v8_hvt__nfactor_slope/sqrt(l*w*mult))}
+ eta0 = 0.08
+ etab = -0.07
+ u0 = 0.019607598
+ ua = -2.7648397e-10
+ ub = 2.34385173e-18
+ uc = -7.7670696e-11
+ ud = 0.0
+ up = 0.0
+ lp = 1.0
+ eu = 1.67
+ vtl = 0.0
+ xn = 3.0
+ vsat = 200000.0
+ a0 = 1.5017417
+ ags = 0.38244371
+ a1 = 0.0
+ a2 = 1.0
+ b0 = 0.0
+ b1 = 0.0
+ keta = -0.013169082
+ dwg = -5.722e-9
+ dwb = -1.7864e-8
+ pclm = 0.075489662
+ pdiblc1 = 0.39
+ pdiblc2 = 0.0036275994
+ pdiblcb = -9.5744039e-5
+ drout = 0.56
+ pscbe1 = 746475130.0
+ pscbe2 = 9.5049925e-9
+ pvag = 0.0
+ delta = 0.01
+ fprout = 0.0
+ pdits = 0.0
+ pditsl = 0.0
+ pditsd = 0.0
+ lambda = 0.0
+ lc = 5.0e-9
* Parameters FOR Asymmetric AND Bias-Dependent RDS Model
+ rdsw = 531.92
+ rsw = 0.0
+ rdw = 0.0
+ rdswmin = 0.0
+ rdwmin = 0.0
+ rswmin = 0.0
+ prwb = -0.32348
+ prwg = 0.02
+ wr = 1.0
* Impact Ionization Current Model Parameters
+ alpha0 = 1.0e-10
+ alpha1 = 1.0e-10
+ beta0 = 4.7923891
* Gidl Induced Drain Leakage Model Parameters
+ agidl = 1.0e-10
+ bgidl = 1154444600.0
+ cgidl = 300.0
+ egidl = 0.1
* Gate Dielectric Tunneling Current Model Parameters
+ toxref = 4.23e-9
+ dlcig = 0.0
+ aigbacc = 0.43
+ bigbacc = 0.054
+ cigbacc = 0.075
+ nigbacc = 1.0
+ aigbinv = 0.35
+ bigbinv = 0.03
+ cigbinv = 0.006
+ eigbinv = 1.1
+ nigbinv = 3.0
+ aigc = 0.43
+ bigc = 0.054
+ cigc = 0.075
+ aigsd = 0.43
+ bigsd = 0.054
+ cigsd = 0.075
+ nigc = 1.0
+ poxedge = 1.0
+ pigcd = 1.0
+ ntox = 1.0
+ vfbsdoff = 0.0
* Charge AND Capacitance Model Parameters
+ dlc = 1.4765e-8
+ dwc = -3.2175e-8
+ xpart = 0.0
+ cgso = 5.46384e-11
+ cgdo = 5.46384e-11
+ cgbo = 0.0
+ cgdl = 6.920864e-12
+ cgsl = 6.920864e-12
+ clc = 1.0e-7
+ cle = 0.6
+ cf = 1.2e-11
+ ckappas = 0.6
+ vfbcv = -0.1446893
+ acde = 0.552
+ moin = 14.504
+ noff = 4.0
+ voffcv = -0.1375
* High-Speed/RF Model Parameters
+ xrcrg1 = 12.0
+ xrcrg2 = 1.0
+ rbpb = 50.0
+ rbpd = 50.0
+ rbps = 50.0
+ rbdb = 50.0
+ rbsb = 50.0
+ gbmin = 1.0e-12
* Flicker AND Thermal Noise Model Parameters
+ ef = 0.88
+ noia = 1.2e+41
+ noib = 2.0e+25
+ noic = 0.0
+ em = 41000000.0
+ ntnoi = 1.0
+ lintnoi = -6.0e-8
+ af = 1.0
+ kf = 0.0
+ tnoia = 1.5
+ tnoib = 3.5
+ rnoia = 0.577
+ rnoib = 0.37
* Layout-Dependent Parasitics Model Parameters
+ xl = 0.0
+ xw = 0.0
+ dmcg = 0.0
+ dmdg = 0.0
+ dmcgt = 0.0
+ xgw = 0.0
+ xgl = 0.0
+ ngcon = 1.0
* Asymmetric Source/Drain Junction Diode Model Parameters
+ jss = 2.17e-5
+ jsws = 8.2e-10
+ ijthsfwd = 0.1
+ ijthsrev = 0.1
+ bvs = 12.8
+ xjbvs = 1.0
+ pbs = 0.6587
+ cjs = 0.000672644022
+ mjs = 0.34629
+ pbsws = 0.7418
+ cjsws = 8.60458928e-11
+ mjsws = 0.26859
+ pbswgs = 1.3925
+ cjswgs = 2.299366688e-10
+ mjswgs = 0.70393
* Temperature Dependence Parameters
+ tnom = 30.0
+ kt1 = -0.44169
+ kt2 = -0.037961
+ at = 0.0
+ ute = -0.30066
+ ua1 = 2.2116e-9
+ ub1 = -7.9359e-19
+ uc1 = 1.1985e-10
+ kt1l = 0.0
+ prt = 0.0
+ tvoff = 0.0
+ njs = 1.2556
+ tpb = 0.0019551
+ tcj = 0.0012407
+ tpbsw = 0.00014242
+ tcjsw = 0.0
+ tpbswg = 0.0
+ tcjswg = 2.0e-12
+ xtis = 2.0
+ tvfbsdoff = 0.0
* DW AND DL Parameters
+ ll = 0.0
+ wl = 0.0
+ lln = 1.0
+ wln = 1.0
+ lw = 0.0
+ ww = 0.0
+ lwn = 1.0
+ wwn = 1.0
+ lwl = 0.0
+ wwl = 0.0
+ llc = 0.0
+ wlc = 0.0
+ lwc = 0.0
+ wwc = 0.0
+ lwlc = 0.0
+ wwlc = 0.0
* Stress Parameters
+ saref = 3.0e-6
+ sbref = 3.0e-6
+ kvth0 = 2.65e-8
+ lkvth0 = 0.0
+ wkvth0 = 2.5e-7
+ pkvth0 = 0.0
+ llodvth = 0.0
+ wlodvth = 1.0
+ wlod = 0.0
+ stk2 = 0.0
+ lodk2 = 1.0
+ lodeta0 = 1.0
+ ku0 = 4.5e-8
+ lku0 = 0.0
+ wku0 = 2.5e-7
+ pku0 = 0.0
+ tku0 = 0.0
+ llodku0 = 0.0
+ wlodku0 = 1.0
+ kvsat = 0.4
+ steta0 = 0.0
* Well Proximity Effect Parameters
.model sky130_fd_pr__pfet_01v8_hvt__model.2 pmos
* Model Flag Parameters
+ lmin = 4.0e-06 lmax = 8.0e-06 wmin = 7.0e-06 wmax = 0.0001
+ level = 54.0
+ version = 4.5
+ binunit = 2.0
+ mobmod = 0.0
+ capmod = 2.0
+ igcmod = 0.0
+ igbmod = 0.0
+ geomod = 0.0
+ diomod = 1.0
+ rdsmod = 0.0
+ rbodymod = 1.0
+ rgatemod = 0.0
+ permod = 1.0
+ acnqsmod = 0.0
+ trnqsmod = 0.0
+ fnoimod = 1.0
+ tnoimod = 1.0
+ tempmod = 0.0
* Process Parameters
+ toxe = {4.01004e-09+sky130_fd_pr__pfet_01v8_hvt__toxe_slope_spectre*(4.23e-09*0.948*(sky130_fd_pr__pfet_01v8_hvt__toxe_slope/sqrt(l*w*mult)))}
+ toxm = 4.23e-9
+ dtox = 0.0
+ epsrox = 3.9
+ xj = 1.5e-7
+ ngate = 1.0e+23
+ ndep = 1.7e+17
+ nsd = 1.0e+20
+ rsh = 1.0
+ rshg = 0.1
* Basic Model Parameters
+ wint = -2.2811e-8
+ lint = 5.565e-9
+ vth0 = {-1.108748660e+00+sky130_fd_pr__pfet_01v8_hvt__vth0_slope_spectre*(sky130_fd_pr__pfet_01v8_hvt__vth0_slope/sqrt(l*w*mult))} lvth0 = -7.112810250e-09 wvth0 = -8.907461576e-08 pvth0 = 7.116055256e-13
+ k1 = 4.360518078e-01 lk1 = 4.154309705e-09 wk1 = 5.202494200e-08 pk1 = -4.156204984e-13
+ k2 = 2.819103967e-02 lk2 = -3.229514006e-09 wk2 = -4.044360936e-08 pk2 = 3.230987375e-13
+ k3 = -13.778
+ k3b = 2.0
+ w0 = 0.0
+ dvt0 = 4.05
+ dvt1 = 0.3
+ dvt2 = 0.03
+ dvt0w = -4.254
+ dvt1w = 1147200.0
+ dvt2w = -0.00896
+ dsub = 0.56
+ minv = 0.0
+ voffl = 0.0
+ lpe0 = 0.0
+ lpeb = 0.0
+ vbm = -3.0
+ dvtp0 = 0.0
+ dvtp1 = 0.0
+ phin = 0.0
+ cdsc = 0.0
+ cdscb = 0.0
+ cdscd = 0.0
+ cit = 1.0e-5
+ voff = {-2.235312098e-01+sky130_fd_pr__pfet_01v8_hvt__voff_slope_spectre*(sky130_fd_pr__pfet_01v8_hvt__voff_slope/sqrt(l*w*mult))} lvoff = 6.481607941e-09 wvoff = 8.116999000e-08 pvoff = -6.484564980e-13
+ nfactor = {2.201405605e+00+sky130_fd_pr__pfet_01v8_hvt__nfactor_slope_spectre*(sky130_fd_pr__pfet_01v8_hvt__nfactor_slope/sqrt(l*w*mult))} lnfactor = 3.862778035e-07 wnfactor = 4.837405429e-06 pnfactor = -3.864540311e-11
+ eta0 = 0.08
+ etab = -0.07
+ u0 = 1.932502699e-02 lu0 = 2.257423098e-09 wu0 = 2.826999288e-08 pu0 = -2.258452980e-13
+ ua = -3.021630050e-10 lua = 2.051464722e-16 wua = 2.569075027e-15 pua = -2.052400641e-20
+ ub = 2.324401486e-18 lub = 1.553854689e-25 wub = 1.945911736e-24 pub = -1.554563589e-29
+ uc = -7.712273168e-11 luc = -4.377615734e-18 wuc = -5.482143144e-17 puc = 4.379612890e-22
+ ud = 0.0
+ up = 0.0
+ lp = 1.0
+ eu = 1.67
+ vtl = 0.0
+ xn = 3.0
+ vsat = 1.943880576e+05 lvsat = 4.483307809e-02 wvsat = 5.614502657e-01 pvsat = -4.485353184e-6
+ a0 = 1.524697852e+00 la0 = -1.833937180e-07 wa0 = -2.296662555e-06 pa0 = 1.834773858e-11
+ ags = 4.014098279e-01 lags = -1.515178505e-07 wags = -1.897477064e-06 pags = 1.515869759e-11
+ a1 = 0.0
+ a2 = 9.848810403e-01 la2 = 1.207035148e-07 wa2 = 1.511585270e-06 pa2 = -1.207585822e-11
+ b0 = 0.0
+ b1 = 0.0
+ keta = -1.635811733e-02 lketa = 2.547678869e-08 wketa = 3.190490233e-07 pketa = -2.548841171e-12
+ dwg = -5.722e-9
+ dwb = -1.7864e-8
+ pclm = 1.175946087e-01 lpclm = -3.363709457e-07 wpclm = -4.212415583e-06 ppclm = 3.365244048e-11
+ pdiblc1 = 0.39
+ pdiblc2 = 3.389656634e-03 lpdiblc2 = 1.900893826e-09 wpdiblc2 = 2.380513203e-08 ppdiblc2 = -1.901761051e-13
+ pdiblcb = -1.467644794e-04 lpdiblcb = 4.075956659e-10 wpdiblcb = 5.104371697e-09 ppdiblcb = -4.077816192e-14
+ drout = 0.56
+ pscbe1 = 7.505188577e+08 lpscbe1 = -3.230481493e+01 wpscbe1 = -4.045572532e+02 ppscbe1 = 3.231955303e-3
+ pscbe2 = 9.463108264e-09 lpscbe2 = 3.346077183e-16 wpscbe2 = 4.190334466e-15 ppscbe2 = -3.347603731e-20
+ pvag = 0.0
+ delta = 0.01
+ fprout = 0.0
+ pdits = 0.0
+ pditsl = 0.0
+ pditsd = 0.0
+ lambda = 0.0
+ lc = 5.0e-9
* Parameters FOR Asymmetric AND Bias-Dependent RDS Model
+ rdsw = 531.92
+ rsw = 0.0
+ rdw = 0.0
+ rdswmin = 0.0
+ rdwmin = 0.0
+ rswmin = 0.0
+ prwb = -0.32348
+ prwg = 0.02
+ wr = 1.0
* Impact Ionization Current Model Parameters
+ alpha0 = 1.0e-10
+ alpha1 = 1.0e-10
+ beta0 = 4.831979289e+00 lbeta0 = -3.162808702e-07 wbeta0 = -3.960825046e-06 pbeta0 = 3.164251638e-11
* Gidl Induced Drain Leakage Model Parameters
+ agidl = 1.034252636e-10 lagidl = -2.736398594e-17 wagidl = -3.426826314e-16 pagidl = 2.737646994e-21
+ bgidl = 1.142776530e+09 lbgidl = 9.321469104e+01 wbgidl = 1.167339279e+03 pbgidl = -9.325721745e-3
+ cgidl = 300.0
+ egidl = 0.1
* Gate Dielectric Tunneling Current Model Parameters
+ toxref = 4.23e-9
+ dlcig = 0.0
+ aigbacc = 0.43
+ bigbacc = 0.054
+ cigbacc = 0.075
+ nigbacc = 1.0
+ aigbinv = 0.35
+ bigbinv = 0.03
+ cigbinv = 0.006
+ eigbinv = 1.1
+ nigbinv = 3.0
+ aigc = 0.43
+ bigc = 0.054
+ cigc = 0.075
+ aigsd = 0.43
+ bigsd = 0.054
+ cigsd = 0.075
+ nigc = 1.0
+ poxedge = 1.0
+ pigcd = 1.0
+ ntox = 1.0
+ vfbsdoff = 0.0
* Charge AND Capacitance Model Parameters
+ dlc = 1.4765e-8
+ dwc = -3.2175e-8
+ xpart = 0.0
+ cgso = 5.46384e-11
+ cgdo = 5.46384e-11
+ cgbo = 0.0
+ cgdl = 6.920864e-12
+ cgsl = 6.920864e-12
+ clc = 1.0e-7
+ cle = 0.6
+ cf = 1.2e-11
+ ckappas = 0.6
+ vfbcv = -0.1446893
+ acde = 0.552
+ moin = 14.504
+ noff = 4.0
+ voffcv = -0.1375
* High-Speed/RF Model Parameters
+ xrcrg1 = 12.0
+ xrcrg2 = 1.0
+ rbpb = 50.0
+ rbpd = 50.0
+ rbps = 50.0
+ rbdb = 50.0
+ rbsb = 50.0
+ gbmin = 1.0e-12
* Flicker AND Thermal Noise Model Parameters
+ ef = 0.88
+ noia = 1.2e+41
+ noib = 2.0e+25
+ noic = 0.0
+ em = 41000000.0
+ ntnoi = 1.0
+ lintnoi = -6.0e-8
+ af = 1.0
+ kf = 0.0
+ tnoia = 1.5
+ tnoib = 3.5
+ rnoia = 0.577
+ rnoib = 0.37
* Layout-Dependent Parasitics Model Parameters
+ xl = 0.0
+ xw = 0.0
+ dmcg = 0.0
+ dmdg = 0.0
+ dmcgt = 0.0
+ xgw = 0.0
+ xgl = 0.0
+ ngcon = 1.0
* Asymmetric Source/Drain Junction Diode Model Parameters
+ jss = 2.17e-5
+ jsws = 8.2e-10
+ ijthsfwd = 0.1
+ ijthsrev = 0.1
+ bvs = 12.8
+ xjbvs = 1.0
+ pbs = 0.6587
+ cjs = 0.000672644022
+ mjs = 0.34629
+ pbsws = 0.7418
+ cjsws = 8.60458928e-11
+ mjsws = 0.26859
+ pbswgs = 1.3925
+ cjswgs = 2.299366688e-10
+ mjswgs = 0.70393
* Temperature Dependence Parameters
+ tnom = 30.0
+ kt1 = -4.425036582e-01 lkt1 = 6.500209282e-09 wkt1 = 8.140293693e-08 pkt1 = -6.503174808e-13
+ kt2 = -3.814118335e-02 lkt2 = 1.439461387e-09 wkt2 = 1.802655567e-08 pkt2 = -1.440118098e-13
+ at = 1.983225665e+04 lat = -1.584373202e-01 wat = -1.984130453e+00 pat = 1.585096025e-5
+ ute = -3.004779279e-01 lute = -1.454550081e-09 wute = -1.821551328e-08 pute = 1.455213676e-13
+ ua1 = 2.227223445e-09 lua1 = -1.248136750e-16 wua1 = -1.563057322e-15 pua1 = 1.248706175e-20
+ ub1 = -8.067528284e-19 lub1 = 1.051561247e-25 wub1 = 1.316883352e-24 pub1 = -1.052040991e-29
+ uc1 = 1.211396142e-10 luc1 = -1.030256012e-17 wuc1 = -1.290202538e-16 puc1 = 1.030726035e-21
+ kt1l = 0.0
+ prt = 0.0
+ tvoff = 0.0
+ njs = 1.2556
+ tpb = 0.0019551
+ tcj = 0.0012407
+ tpbsw = 0.00014242
+ tcjsw = 0.0
+ tpbswg = 0.0
+ tcjswg = 2.0e-12
+ xtis = 2.0
+ tvfbsdoff = 0.0
* DW AND DL Parameters
+ ll = 0.0
+ wl = 0.0
+ lln = 1.0
+ wln = 1.0
+ lw = 0.0
+ ww = 0.0
+ lwn = 1.0
+ wwn = 1.0
+ lwl = 0.0
+ wwl = 0.0
+ llc = 0.0
+ wlc = 0.0
+ lwc = 0.0
+ wwc = 0.0
+ lwlc = 0.0
+ wwlc = 0.0
* Stress Parameters
+ saref = 3.0e-6
+ sbref = 3.0e-6
+ kvth0 = 2.65e-8
+ lkvth0 = 0.0
+ wkvth0 = 2.5e-7
+ pkvth0 = 0.0
+ llodvth = 0.0
+ wlodvth = 1.0
+ wlod = 0.0
+ stk2 = 0.0
+ lodk2 = 1.0
+ lodeta0 = 1.0
+ ku0 = 4.5e-8
+ lku0 = 0.0
+ wku0 = 2.5e-7
+ pku0 = 0.0
+ tku0 = 0.0
+ llodku0 = 0.0
+ wlodku0 = 1.0
+ kvsat = 0.4
+ steta0 = 0.0
* Well Proximity Effect Parameters
.model sky130_fd_pr__pfet_01v8_hvt__model.3 pmos
* Model Flag Parameters
+ lmin = 2.0e-06 lmax = 4.0e-06 wmin = 7.0e-06 wmax = 0.0001
+ level = 54.0
+ version = 4.5
+ binunit = 2.0
+ mobmod = 0.0
+ capmod = 2.0
+ igcmod = 0.0
+ igbmod = 0.0
+ geomod = 0.0
+ diomod = 1.0
+ rdsmod = 0.0
+ rbodymod = 1.0
+ rgatemod = 0.0
+ permod = 1.0
+ acnqsmod = 0.0
+ trnqsmod = 0.0
+ fnoimod = 1.0
+ tnoimod = 1.0
+ tempmod = 0.0
* Process Parameters
+ toxe = {4.01004e-09+sky130_fd_pr__pfet_01v8_hvt__toxe_slope_spectre*(4.23e-09*0.948*(sky130_fd_pr__pfet_01v8_hvt__toxe_slope/sqrt(l*w*mult)))}
+ toxm = 4.23e-9
+ dtox = 0.0
+ epsrox = 3.9
+ xj = 1.5e-7
+ ngate = 1.0e+23
+ ndep = 1.7e+17
+ nsd = 1.0e+20
+ rsh = 1.0
+ rshg = 0.1
* Basic Model Parameters
+ wint = -2.2811e-8
+ lint = 5.565e-9
+ vth0 = {-1.122759258e+00+sky130_fd_pr__pfet_01v8_hvt__vth0_slope_spectre*(sky130_fd_pr__pfet_01v8_hvt__vth0_slope/sqrt(l*w*mult))} lvth0 = 4.877364531e-08 wvth0 = 1.401481030e-07 pvth0 = -2.027341004e-13
+ k1 = 4.493657172e-01 lk1 = -4.895314383e-08 wk1 = -5.951765964e-07 pk1 = 2.165982302e-12
+ k2 = 1.965123111e-02 lk2 = 3.083467214e-08 wk2 = 2.815734565e-07 pk2 = -9.613854759e-13
+ k3 = -13.778
+ k3b = 2.0
+ w0 = 0.0
+ dvt0 = 4.05
+ dvt1 = 0.3
+ dvt2 = 0.03
+ dvt0w = -4.254
+ dvt1w = 1147200.0
+ dvt2w = -0.00896
+ dsub = 5.442199869e-01 ldsub = 6.294442095e-08 wdsub = 1.578721228e-06 pdsub = -6.297313746e-12
+ minv = 0.0
+ voffl = 0.0
+ lpe0 = 0.0
+ lpeb = 0.0
+ vbm = -3.0
+ dvtp0 = 0.0
+ dvtp1 = 0.0
+ phin = 0.0
+ cdsc = 0.0
+ cdscb = 0.0
+ cdscd = 0.0
+ cit = 1.0e-5
+ voff = {-2.097347255e-01+sky130_fd_pr__pfet_01v8_hvt__voff_slope_spectre*(sky130_fd_pr__pfet_01v8_hvt__voff_slope/sqrt(l*w*mult))} lvoff = -4.855077438e-08 wvoff = -2.306790003e-07 pvoff = 5.954685840e-13
+ nfactor = {3.002861472e+00+sky130_fd_pr__pfet_01v8_hvt__nfactor_slope_spectre*(sky130_fd_pr__pfet_01v8_hvt__nfactor_slope/sqrt(l*w*mult))} lnfactor = -2.810625461e-06 wnfactor = -1.167067584e-05 pnfactor = 2.720318701e-11
+ eta0 = 7.401064685e-02 leta0 = 2.389075108e-08 weta0 = 5.992085608e-07 peta0 = -2.390165052e-12
+ etab = -6.476402461e-02 letab = -2.088562516e-08 wetab = -5.238364148e-07 petab = 2.089515360e-12
+ u0 = 2.366069310e-02 lu0 = -1.503698541e-08 wu0 = -3.338058468e-08 pu0 = 2.007084129e-14
+ ua = 9.272450516e-11 lua = -1.370008470e-15 wua = -3.121327775e-15 pua = 2.174270613e-21
+ ub = 2.623200850e-18 lub = -1.036486351e-24 wub = -2.333901187e-24 pub = 1.525981486e-30
+ uc = -8.615807197e-11 luc = 3.166318211e-17 wuc = 1.275182190e-16 puc = -2.893678725e-22
+ ud = 0.0
+ up = 0.0
+ lp = 1.0
+ eu = 1.67
+ vtl = 0.0
+ xn = 3.0
+ vsat = 2.799149686e+05 lvsat = -2.963226514e-01 wvsat = -6.048539334e-01 pvsat = 1.668826468e-7
+ a0 = 1.149595481e+00 la0 = 1.312840879e-06 wa0 = 5.000049791e-06 pa0 = -1.075789839e-11
+ ags = 1.073348097e-01 lags = 1.021509168e-06 wags = 2.547224328e-06 pags = -2.570638448e-12
+ a1 = 0.0
+ a2 = 1.229084975e+00 la2 = -8.533942343e-07 wa2 = -3.023170540e-06 pa2 = 6.012693192e-12
+ b0 = 0.0
+ b1 = 0.0
+ keta = 3.501192289e-02 lketa = -1.794316236e-07 wketa = -6.207023588e-07 pketa = 1.199704925e-12
+ dwg = -5.722e-9
+ dwb = -1.7864e-8
+ pclm = -5.647293317e-01 lpclm = 2.385330551e-06 wpclm = 8.603689119e-06 ppclm = -1.746933508e-11
+ pdiblc1 = 0.39
+ pdiblc2 = 7.217847004e-03 lpdiblc2 = -1.336925990e-08 wpdiblc2 = -4.584503763e-08 ppdiblc2 = 8.764936711e-14
+ pdiblcb = 6.199588191e-04 lpdiblcb = -2.650763898e-09 wpdiblcb = -4.414829700e-09 ppdiblcb = -2.807305045e-15
+ drout = 0.56
+ pscbe1 = 6.851606705e+08 lpscbe1 = 2.284004973e+02 wpscbe1 = 8.091145064e+02 ppscbe1 = -1.609223568e-3
+ pscbe2 = 1.011912642e-08 lpscbe2 = -2.282163411e-15 wpscbe2 = -6.284641909e-15 ppscbe2 = 8.307281707e-21
+ pvag = 0.0
+ delta = 0.01
+ fprout = 0.0
+ pdits = 0.0
+ pditsl = 0.0
+ pditsd = 0.0
+ lambda = 0.0
+ lc = 5.0e-9
* Parameters FOR Asymmetric AND Bias-Dependent RDS Model
+ rdsw = 531.92
+ rsw = 0.0
+ rdw = 0.0
+ rdswmin = 0.0
+ rdwmin = 0.0
+ rswmin = 0.0
+ prwb = -0.32348
+ prwg = 0.02
+ wr = 1.0
* Impact Ionization Current Model Parameters
+ alpha0 = 1.0e-10
+ alpha1 = 1.0e-10
+ beta0 = 4.340918808e+00 lbeta0 = 1.642495549e-06 wbeta0 = -6.968142227e-06 pbeta0 = 4.363831367e-11
* Gidl Induced Drain Leakage Model Parameters
+ agidl = 4.504514984e-11 lagidl = 2.055066986e-16 wagidl = 9.873101499e-16 pagidl = -2.567521312e-21
+ bgidl = 1.331365855e+09 lbgidl = -6.590436080e+02 wbgidl = -2.334678558e+03 pbgidl = 4.643372143e-3
+ cgidl = 300.0
+ egidl = 0.1
* Gate Dielectric Tunneling Current Model Parameters
+ toxref = 4.23e-9
+ dlcig = 0.0
+ aigbacc = 0.43
+ bigbacc = 0.054
+ cigbacc = 0.075
+ nigbacc = 1.0
+ aigbinv = 0.35
+ bigbinv = 0.03
+ cigbinv = 0.006
+ eigbinv = 1.1
+ nigbinv = 3.0
+ aigc = 0.43
+ bigc = 0.054
+ cigc = 0.075
+ aigsd = 0.43
+ bigsd = 0.054
+ cigsd = 0.075
+ nigc = 1.0
+ poxedge = 1.0
+ pigcd = 1.0
+ ntox = 1.0
+ vfbsdoff = 0.0
* Charge AND Capacitance Model Parameters
+ dlc = 1.4765e-8
+ dwc = -3.2175e-8
+ xpart = 0.0
+ cgso = 5.46384e-11
+ cgdo = 5.46384e-11
+ cgbo = 0.0
+ cgdl = 6.920864e-12
+ cgsl = 6.920864e-12
+ clc = 1.0e-7
+ cle = 0.6
+ cf = 1.2e-11
+ ckappas = 0.6
+ vfbcv = -0.1446893
+ acde = 0.552
+ moin = 14.504
+ noff = 4.0
+ voffcv = -0.1375
* High-Speed/RF Model Parameters
+ xrcrg1 = 12.0
+ xrcrg2 = 1.0
+ rbpb = 50.0
+ rbpd = 50.0
+ rbps = 50.0
+ rbdb = 50.0
+ rbsb = 50.0
+ gbmin = 1.0e-12
* Flicker AND Thermal Noise Model Parameters
+ ef = 0.88
+ noia = 1.2e+41
+ noib = 2.0e+25
+ noic = 0.0
+ em = 41000000.0
+ ntnoi = 1.0
+ lintnoi = -6.0e-8
+ af = 1.0
+ kf = 0.0
+ tnoia = 1.5
+ tnoib = 3.5
+ rnoia = 0.577
+ rnoib = 0.37
* Layout-Dependent Parasitics Model Parameters
+ xl = 0.0
+ xw = 0.0
+ dmcg = 0.0
+ dmdg = 0.0
+ dmcgt = 0.0
+ xgw = 0.0
+ xgl = 0.0
+ ngcon = 1.0
* Asymmetric Source/Drain Junction Diode Model Parameters
+ jss = 2.17e-5
+ jsws = 8.2e-10
+ ijthsfwd = 0.1
+ ijthsrev = 0.1
+ bvs = 12.8
+ xjbvs = 1.0
+ pbs = 0.6587
+ cjs = 0.000672644022
+ mjs = 0.34629
+ pbsws = 0.7418
+ cjsws = 8.60458928e-11
+ mjsws = 0.26859
+ pbswgs = 1.3925
+ cjswgs = 2.299366688e-10
+ mjswgs = 0.70393
* Temperature Dependence Parameters
+ tnom = 30.0
+ kt1 = -4.277110086e-01 lkt1 = -5.250574678e-08 wkt1 = -3.270417800e-07 pkt1 = 9.789153974e-13
+ kt2 = -3.548113669e-02 lkt2 = -9.171118947e-09 wkt2 = -1.081851686e-08 pkt2 = -2.895256535e-14
+ at = -3.136423608e+05 lat = 1.171749577e+00 wat = 5.261722303e+00 pat = -1.305180443e-5
+ ute = -2.935034937e-01 lute = -2.927466138e-08 wute = -9.557452919e-07 pute = 3.885205776e-12
+ ua1 = 1.930766960e-09 lua1 = 1.057712705e-15 wua1 = 7.521818200e-15 pua1 = -2.375132567e-20
+ ub1 = -5.690430214e-19 lub1 = -8.430373928e-25 wub1 = -5.130996646e-24 pub1 = 1.519934518e-29
+ uc1 = 8.453246673e-11 luc1 = 1.357185922e-16 wuc1 = 1.835089605e-15 puc1 = -6.803852856e-21
+ kt1l = 0.0
+ prt = 0.0
+ tvoff = 0.0
+ njs = 1.2556
+ tpb = 0.0019551
+ tcj = 0.0012407
+ tpbsw = 0.00014242
+ tcjsw = 0.0
+ tpbswg = 0.0
+ tcjswg = 2.0e-12
+ xtis = 2.0
+ tvfbsdoff = 0.0
* DW AND DL Parameters
+ ll = 0.0
+ wl = 0.0
+ lln = 1.0
+ wln = 1.0
+ lw = 0.0
+ ww = 0.0
+ lwn = 1.0
+ wwn = 1.0
+ lwl = 0.0
+ wwl = 0.0
+ llc = 0.0
+ wlc = 0.0
+ lwc = 0.0
+ wwc = 0.0
+ lwlc = 0.0
+ wwlc = 0.0
* Stress Parameters
+ saref = 3.0e-6
+ sbref = 3.0e-6
+ kvth0 = 2.65e-8
+ lkvth0 = 0.0
+ wkvth0 = 2.5e-7
+ pkvth0 = 0.0
+ llodvth = 0.0
+ wlodvth = 1.0
+ wlod = 0.0
+ stk2 = 0.0
+ lodk2 = 1.0
+ lodeta0 = 1.0
+ ku0 = 4.5e-8
+ lku0 = 0.0
+ wku0 = 2.5e-7
+ pku0 = 0.0
+ tku0 = 0.0
+ llodku0 = 0.0
+ wlodku0 = 1.0
+ kvsat = 0.4
+ steta0 = 0.0
* Well Proximity Effect Parameters
.model sky130_fd_pr__pfet_01v8_hvt__model.4 pmos
* Model Flag Parameters
+ lmin = 1.0e-06 lmax = 2.0e-06 wmin = 7.0e-06 wmax = 0.0001
+ level = 54.0
+ version = 4.5
+ binunit = 2.0
+ mobmod = 0.0
+ capmod = 2.0
+ igcmod = 0.0
+ igbmod = 0.0
+ geomod = 0.0
+ diomod = 1.0
+ rdsmod = 0.0
+ rbodymod = 1.0
+ rgatemod = 0.0
+ permod = 1.0
+ acnqsmod = 0.0
+ trnqsmod = 0.0
+ fnoimod = 1.0
+ tnoimod = 1.0
+ tempmod = 0.0
* Process Parameters
+ toxe = {4.01004e-09+sky130_fd_pr__pfet_01v8_hvt__toxe_slope_spectre*(4.23e-09*0.948*(sky130_fd_pr__pfet_01v8_hvt__toxe_slope/sqrt(l*w*mult)))}
+ toxm = 4.23e-9
+ dtox = 0.0
+ epsrox = 3.9
+ xj = 1.5e-7
+ ngate = 1.0e+23
+ ndep = 1.7e+17
+ nsd = 1.0e+20
+ rsh = 1.0
+ rshg = 0.1
* Basic Model Parameters
+ wint = -2.2811e-8
+ lint = 5.565e-9
+ vth0 = {-1.096635140e+00+sky130_fd_pr__pfet_01v8_hvt__vth0_slope_spectre*(sky130_fd_pr__pfet_01v8_hvt__vth0_slope/sqrt(l*w*mult))} lvth0 = -3.183830430e-09 wvth0 = -1.219416244e-07 pvth0 = 3.185282958e-13
+ k1 = 4.209874975e-01 lk1 = 7.487445918e-09 wk1 = 8.705142160e-07 pk1 = -7.490861840e-13
+ k2 = 3.664638724e-02 lk2 = -2.966484037e-09 wk2 = -3.510315989e-07 pk2 = 2.967837406e-13
+ k3 = -13.778
+ k3b = 2.0
+ w0 = 0.0
+ dvt0 = 4.05
+ dvt1 = 0.3
+ dvt2 = 0.03
+ dvt0w = -4.254
+ dvt1w = 1147200.0
+ dvt2w = -0.00896
+ dsub = 6.245231430e-01 ldsub = -9.676811721e-08 wdsub = -6.455257977e-06 pdsub = 9.681226476e-12
+ minv = 0.0
+ voffl = 0.0
+ lpe0 = 0.0
+ lpeb = 0.0
+ vbm = -3.0
+ dvtp0 = 0.0
+ dvtp1 = 0.0
+ phin = 0.0
+ cdsc = 0.0
+ cdscb = 0.0
+ cdscd = 0.0
+ cit = 1.0e-5
+ voff = {-2.343090447e-01+sky130_fd_pr__pfet_01v8_hvt__voff_slope_spectre*(sky130_fd_pr__pfet_01v8_hvt__voff_slope/sqrt(l*w*mult))} lvoff = 3.243519242e-10 wvoff = 8.503724761e-08 pvoff = -3.244999001e-14
+ nfactor = {1.571212030e+00+sky130_fd_pr__pfet_01v8_hvt__nfactor_slope_spectre*(sky130_fd_pr__pfet_01v8_hvt__nfactor_slope/sqrt(l*w*mult))} lnfactor = 3.673916402e-08 wnfactor = 3.855114951e-06 pnfactor = -3.675592516e-12
+ eta0 = 1.024505933e-01 leta0 = -3.267260519e-08 weta0 = -2.246083570e-06 peta0 = 3.268751109e-12
+ etab = -7.530273474e-02 letab = 7.449926597e-11 wetab = 5.305153957e-07 petab = -7.453325403e-15
+ u0 = 1.600368364e-02 lu0 = 1.918110102e-10 wu0 = -1.364038390e-08 pu0 = -1.918985182e-14
+ ua = -5.894234371e-10 lua = -1.330489245e-17 wua = -2.697381327e-15 pua = 1.331096241e-21
+ ub = 2.074848117e-18 lub = 5.411594944e-26 wub = 1.155540208e-24 pub = -5.414063822e-30
+ uc = -6.957681104e-11 luc = -1.314790313e-18 wuc = -8.411295202e-17 puc = 1.315390146e-22
+ ud = 0.0
+ up = 0.0
+ lp = 1.0
+ eu = 1.67
+ vtl = 0.0
+ xn = 3.0
+ vsat = 1.333042000e+05 lvsat = -4.732892029e-03 wvsat = -7.590231250e-01 pvsat = 4.735051269e-7
+ a0 = 1.811685334e+00 la0 = -3.969767887e-09 wa0 = -6.086909959e-07 pa0 = 3.971578974e-13
+ ags = 6.300862175e-01 lags = -1.817542500e-08 wags = 3.404384909e-07 pags = 1.818371699e-12
+ a1 = 0.0
+ a2 = 0.8
+ b0 = 0.0
+ b1 = 0.0
+ keta = -5.402520275e-02 lketa = -2.348355581e-09 wketa = -1.356217703e-07 pketa = 2.349426948e-13
+ dwg = -5.722e-9
+ dwb = -1.7864e-8
+ pclm = 6.430702329e-01 lpclm = -1.682576948e-08 wpclm = -1.026241271e-06 ppclm = 1.683344573e-12
+ pdiblc1 = 3.865953011e-01 lpdiblc1 = 6.771503502e-09 wpdiblc1 = 3.406252192e-07 ppdiblc1 = -6.774592797e-13