* NGSPICE file created from controller.ext - technology: sky130A

.subckt sky130_fd_sc_hd__decap_4 VGND VPWR VPB VNB
X0 VPWR VGND VPWR VPB sky130_fd_pr__pfet_01v8_hvt ad=0.2262 pd=2.26 as=0 ps=0 w=0.87 l=1.05
X1 VGND VPWR VGND VNB sky130_fd_pr__nfet_01v8 ad=0.143 pd=1.62 as=0 ps=0 w=0.55 l=1.05
.ends

.subckt sky130_fd_sc_hd__decap_8 VPWR VGND VPB VNB
X0 VPWR VGND VPWR VPB sky130_fd_pr__pfet_01v8_hvt ad=0.2262 pd=2.26 as=0 ps=0 w=0.87 l=2.89
X1 VGND VPWR VGND VNB sky130_fd_pr__nfet_01v8 ad=0.143 pd=1.62 as=0 ps=0 w=0.55 l=2.89
.ends

.subckt sky130_ef_sc_hd__decap_12 VGND VPWR VPB VNB
X0 VPWR VGND VPWR VPB sky130_fd_pr__pfet_01v8_hvt ad=0.2262 pd=2.26 as=0 ps=0 w=0.87 l=4.73
X1 VGND VPWR VGND VNB sky130_fd_pr__nfet_01v8 ad=0.143 pd=1.62 as=0 ps=0 w=0.55 l=4.73
.ends

.subckt sky130_fd_sc_hd__dfrtp_1 VGND VPWR VPB VNB CLK D RESET_B Q
X0 a_805_47# a_761_289# a_639_47# VNB sky130_fd_pr__nfet_01v8 ad=0.0441 pd=0.63 as=0.1401 ps=1.1 w=0.42 l=0.15
X1 a_1217_47# a_27_47# a_1108_47# VNB sky130_fd_pr__special_nfet_01v8 ad=0.0669 pd=0.75 as=0.0711 ps=0.755 w=0.36 l=0.15
X2 a_1283_21# a_1108_47# a_1462_47# VNB sky130_fd_pr__nfet_01v8 ad=0.1092 pd=1.36 as=0.06405 ps=0.725 w=0.42 l=0.15
X3 a_651_413# a_27_47# a_543_47# VPB sky130_fd_pr__pfet_01v8_hvt ad=0.1155 pd=0.97 as=0.07245 ps=0.765 w=0.42 l=0.15
X4 a_1108_47# a_193_47# a_761_289# VNB sky130_fd_pr__special_nfet_01v8 ad=0.0711 pd=0.755 as=0.0999 ps=0.985 w=0.36 l=0.15
X5 VGND RESET_B a_805_47# VNB sky130_fd_pr__nfet_01v8 ad=0.1346 pd=1.15 as=0.0441 ps=0.63 w=0.42 l=0.15
X6 Q a_1283_21# VPWR VPB sky130_fd_pr__pfet_01v8_hvt ad=0.26 pd=2.52 as=0.3012 ps=2.66 w=1 l=0.15
X7 VPWR CLK a_27_47# VPB sky130_fd_pr__pfet_01v8_hvt ad=0.0864 pd=0.91 as=0.1664 ps=1.8 w=0.64 l=0.15
X8 a_448_47# D VPWR VPB sky130_fd_pr__pfet_01v8_hvt ad=0.0651 pd=0.73 as=0.1092 ps=1.36 w=0.42 l=0.15
X9 a_761_289# a_543_47# VGND VNB sky130_fd_pr__nfet_01v8 ad=0.0999 pd=0.985 as=0.1346 ps=1.15 w=0.64 l=0.15
X10 a_193_47# a_27_47# VGND VNB sky130_fd_pr__nfet_01v8 ad=0.1092 pd=1.36 as=0.0567 ps=0.69 w=0.42 l=0.15
X11 a_1108_47# a_27_47# a_761_289# VPB sky130_fd_pr__pfet_01v8_hvt ad=0.0588 pd=0.7 as=0.12915 ps=1.185 w=0.42 l=0.15
X12 a_1462_47# RESET_B VGND VNB sky130_fd_pr__nfet_01v8 ad=0.06405 pd=0.725 as=0.12495 ps=1.015 w=0.42 l=0.15
X13 a_543_47# a_27_47# a_448_47# VNB sky130_fd_pr__special_nfet_01v8 ad=0.0594 pd=0.69 as=0.066 ps=0.745 w=0.36 l=0.15
X14 a_543_47# a_193_47# a_448_47# VPB sky130_fd_pr__pfet_01v8_hvt ad=0.07245 pd=0.765 as=0.0651 ps=0.73 w=0.42 l=0.15
X15 a_448_47# D VGND VNB sky130_fd_pr__nfet_01v8 ad=0.066 pd=0.745 as=0.2205 ps=1.89 w=0.42 l=0.15
X16 VPWR a_1283_21# a_1270_413# VPB sky130_fd_pr__pfet_01v8_hvt ad=0.0819 pd=0.81 as=0.0567 ps=0.69 w=0.42 l=0.15
X17 VPWR a_1108_47# a_1283_21# VPB sky130_fd_pr__pfet_01v8_hvt ad=0.1134 pd=1.38 as=0.0567 ps=0.69 w=0.42 l=0.15
X18 a_1270_413# a_193_47# a_1108_47# VPB sky130_fd_pr__pfet_01v8_hvt ad=0.0567 pd=0.69 as=0.0588 ps=0.7 w=0.42 l=0.15
X19 a_193_47# a_27_47# VPWR VPB sky130_fd_pr__pfet_01v8_hvt ad=0.1664 pd=1.8 as=0.0864 ps=0.91 w=0.64 l=0.15
X20 a_1283_21# RESET_B VPWR VPB sky130_fd_pr__pfet_01v8_hvt ad=0.0567 pd=0.69 as=0.0819 ps=0.81 w=0.42 l=0.15
X21 VPWR a_761_289# a_651_413# VPB sky130_fd_pr__pfet_01v8_hvt ad=0.07035 pd=0.755 as=0.1155 ps=0.97 w=0.42 l=0.15
X22 Q a_1283_21# VGND VNB sky130_fd_pr__nfet_01v8 ad=0.169 pd=1.82 as=0.2087 ps=2.02 w=0.65 l=0.15
X23 a_639_47# a_193_47# a_543_47# VNB sky130_fd_pr__special_nfet_01v8 ad=0.1401 pd=1.1 as=0.0594 ps=0.69 w=0.36 l=0.15
X24 VGND a_1283_21# a_1217_47# VNB sky130_fd_pr__nfet_01v8 ad=0.12495 pd=1.015 as=0.0669 ps=0.75 w=0.42 l=0.15
X25 a_651_413# RESET_B VPWR VPB sky130_fd_pr__pfet_01v8_hvt ad=0.1092 pd=1.36 as=0.07035 ps=0.755 w=0.42 l=0.15
X26 VGND CLK a_27_47# VNB sky130_fd_pr__nfet_01v8 ad=0.0567 pd=0.69 as=0.1092 ps=1.36 w=0.42 l=0.15
X27 a_761_289# a_543_47# VPWR VPB sky130_fd_pr__pfet_01v8_hvt ad=0.12915 pd=1.185 as=0.2184 ps=2.2 w=0.84 l=0.15
.ends

.subckt sky130_fd_sc_hd__inv_2 VPB VNB VPWR VGND Y A
X0 Y A VPWR VPB sky130_fd_pr__pfet_01v8_hvt ad=0.135 pd=1.27 as=0.26 ps=2.52 w=1 l=0.15
X1 VGND A Y VNB sky130_fd_pr__nfet_01v8 ad=0.169 pd=1.82 as=0.08775 ps=0.92 w=0.65 l=0.15
X2 Y A VGND VNB sky130_fd_pr__nfet_01v8 ad=0.08775 pd=0.92 as=0.169 ps=1.82 w=0.65 l=0.15
X3 VPWR A Y VPB sky130_fd_pr__pfet_01v8_hvt ad=0.26 pd=2.52 as=0.135 ps=1.27 w=1 l=0.15
.ends

.subckt sky130_fd_sc_hd__decap_3 VPWR VGND VPB VNB
X0 VPWR VGND VPWR VPB sky130_fd_pr__pfet_01v8_hvt ad=0.2262 pd=2.26 as=0 ps=0 w=0.87 l=0.59
X1 VGND VPWR VGND VNB sky130_fd_pr__nfet_01v8 ad=0.143 pd=1.62 as=0 ps=0 w=0.55 l=0.59
.ends

.subckt sky130_fd_sc_hd__buf_2 VPWR VGND X A VPB VNB
X0 VPWR a_27_47# X VPB sky130_fd_pr__pfet_01v8_hvt ad=0.265 pd=2.53 as=0.135 ps=1.27 w=1 l=0.15
X1 X a_27_47# VPWR VPB sky130_fd_pr__pfet_01v8_hvt ad=0.135 pd=1.27 as=0.149 ps=1.325 w=1 l=0.15
X2 VPWR A a_27_47# VPB sky130_fd_pr__pfet_01v8_hvt ad=0.149 pd=1.325 as=0.1664 ps=1.8 w=0.64 l=0.15
X3 X a_27_47# VGND VNB sky130_fd_pr__nfet_01v8 ad=0.08775 pd=0.92 as=0.097 ps=0.975 w=0.65 l=0.15
X4 VGND a_27_47# X VNB sky130_fd_pr__nfet_01v8 ad=0.17225 pd=1.83 as=0.08775 ps=0.92 w=0.65 l=0.15
X5 VGND A a_27_47# VNB sky130_fd_pr__nfet_01v8 ad=0.097 pd=0.975 as=0.1092 ps=1.36 w=0.42 l=0.15
.ends

.subckt sky130_fd_sc_hd__dfstp_1 VPB VNB VPWR VGND Q SET_B D CLK
X0 VGND a_652_21# a_586_47# VNB sky130_fd_pr__nfet_01v8 ad=0.0882 pd=0.84 as=0.06705 ps=0.75 w=0.42 l=0.15
X1 a_956_413# a_476_47# VPWR VPB sky130_fd_pr__pfet_01v8_hvt ad=0.0483 pd=0.65 as=0.0567 ps=0.69 w=0.42 l=0.15
X2 VPWR a_476_47# a_652_21# VPB sky130_fd_pr__pfet_01v8_hvt ad=0.0567 pd=0.69 as=0.0567 ps=0.69 w=0.42 l=0.15
X3 VPWR CLK a_27_47# VPB sky130_fd_pr__pfet_01v8_hvt ad=0.0864 pd=0.91 as=0.1664 ps=1.8 w=0.64 l=0.15
X4 a_586_47# a_193_47# a_476_47# VNB sky130_fd_pr__special_nfet_01v8 ad=0.06705 pd=0.75 as=0.072 ps=0.76 w=0.36 l=0.15
X5 a_1056_47# a_476_47# VGND VNB sky130_fd_pr__nfet_01v8 ad=0.0441 pd=0.63 as=0.1092 ps=1.36 w=0.42 l=0.15
X6 a_476_47# a_27_47# a_381_47# VNB sky130_fd_pr__special_nfet_01v8 ad=0.072 pd=0.76 as=0.0935 ps=0.965 w=0.36 l=0.15
X7 a_381_47# D VPWR VPB sky130_fd_pr__pfet_01v8_hvt ad=0.12495 pd=1.175 as=0.2184 ps=2.2 w=0.84 l=0.15
X8 a_652_21# SET_B VPWR VPB sky130_fd_pr__pfet_01v8_hvt ad=0.0567 pd=0.69 as=0.0798 ps=0.8 w=0.42 l=0.15
X9 a_1224_47# a_27_47# a_1032_413# VNB sky130_fd_pr__nfet_01v8 ad=0.0441 pd=0.63 as=0.0693 ps=0.75 w=0.42 l=0.15
X10 a_562_413# a_27_47# a_476_47# VPB sky130_fd_pr__pfet_01v8_hvt ad=0.0945 pd=0.87 as=0.0567 ps=0.69 w=0.42 l=0.15
X11 VGND a_1032_413# a_1602_47# VNB sky130_fd_pr__nfet_01v8 ad=0.097 pd=0.975 as=0.1092 ps=1.36 w=0.42 l=0.15
X12 VPWR a_1182_261# a_1140_413# VPB sky130_fd_pr__pfet_01v8_hvt ad=0.1092 pd=1.36 as=0.0441 ps=0.63 w=0.42 l=0.15
X13 Q a_1602_47# VPWR VPB sky130_fd_pr__pfet_01v8_hvt ad=0.26 pd=2.52 as=0.149 ps=1.325 w=1 l=0.15
X14 a_1032_413# a_193_47# a_1056_47# VNB sky130_fd_pr__nfet_01v8 ad=0.0693 pd=0.75 as=0.0441 ps=0.63 w=0.42 l=0.15
X15 a_476_47# a_193_47# a_381_47# VPB sky130_fd_pr__pfet_01v8_hvt ad=0.0567 pd=0.69 as=0.12495 ps=1.175 w=0.42 l=0.15
X16 a_1296_47# a_1182_261# a_1224_47# VNB sky130_fd_pr__nfet_01v8 ad=0.0483 pd=0.65 as=0.0441 ps=0.63 w=0.42 l=0.15
X17 a_193_47# a_27_47# VGND VNB sky130_fd_pr__nfet_01v8 ad=0.1092 pd=1.36 as=0.0567 ps=0.69 w=0.42 l=0.15
X18 VPWR a_652_21# a_562_413# VPB sky130_fd_pr__pfet_01v8_hvt ad=0.0798 pd=0.8 as=0.0945 ps=0.87 w=0.42 l=0.15
X19 VPWR SET_B a_1032_413# VPB sky130_fd_pr__pfet_01v8_hvt ad=0.12285 pd=1.17 as=0.1092 ps=1.36 w=0.42 l=0.15
X20 a_1032_413# a_27_47# a_956_413# VPB sky130_fd_pr__pfet_01v8_hvt ad=0.0819 pd=0.81 as=0.0483 ps=0.65 w=0.42 l=0.15
X21 a_1182_261# a_1032_413# VPWR VPB sky130_fd_pr__pfet_01v8_hvt ad=0.2184 pd=2.2 as=0.12285 ps=1.17 w=0.84 l=0.15
X22 Q a_1602_47# VGND VNB sky130_fd_pr__nfet_01v8 ad=0.169 pd=1.82 as=0.097 ps=0.975 w=0.65 l=0.15
X23 a_193_47# a_27_47# VPWR VPB sky130_fd_pr__pfet_01v8_hvt ad=0.1664 pd=1.8 as=0.0864 ps=0.91 w=0.64 l=0.15
X24 a_1140_413# a_193_47# a_1032_413# VPB sky130_fd_pr__pfet_01v8_hvt ad=0.0441 pd=0.63 as=0.0819 ps=0.81 w=0.42 l=0.15
X25 VPWR a_1032_413# a_1602_47# VPB sky130_fd_pr__pfet_01v8_hvt ad=0.149 pd=1.325 as=0.1664 ps=1.8 w=0.64 l=0.15
X26 a_796_47# SET_B VGND VNB sky130_fd_pr__nfet_01v8 ad=0.0441 pd=0.63 as=0.0882 ps=0.84 w=0.42 l=0.15
X27 a_381_47# D VGND VNB sky130_fd_pr__nfet_01v8 ad=0.0935 pd=0.965 as=0.1664 ps=1.8 w=0.64 l=0.15
X28 a_1182_261# a_1032_413# VGND VNB sky130_fd_pr__nfet_01v8 ad=0.1404 pd=1.6 as=0.1137 ps=1.01 w=0.54 l=0.15
X29 a_652_21# a_476_47# a_796_47# VNB sky130_fd_pr__nfet_01v8 ad=0.1092 pd=1.36 as=0.0441 ps=0.63 w=0.42 l=0.15
X30 VGND CLK a_27_47# VNB sky130_fd_pr__nfet_01v8 ad=0.0567 pd=0.69 as=0.1092 ps=1.36 w=0.42 l=0.15
X31 VGND SET_B a_1296_47# VNB sky130_fd_pr__nfet_01v8 ad=0.1137 pd=1.01 as=0.0483 ps=0.65 w=0.42 l=0.15
.ends

.subckt sky130_fd_sc_hd__clkbuf_16 VNB VPB VGND VPWR A X
X0 VPWR A a_110_47# VPB sky130_fd_pr__pfet_01v8_hvt ad=0.14 pd=1.28 as=0.14 ps=1.28 w=1 l=0.15
X1 VPWR a_110_47# X VPB sky130_fd_pr__pfet_01v8_hvt ad=0.14 pd=1.28 as=0.14 ps=1.28 w=1 l=0.15
X2 X a_110_47# VPWR VPB sky130_fd_pr__pfet_01v8_hvt ad=0.14 pd=1.28 as=0.14 ps=1.28 w=1 l=0.15
X3 X a_110_47# VPWR VPB sky130_fd_pr__pfet_01v8_hvt ad=0.14 pd=1.28 as=0.14 ps=1.28 w=1 l=0.15
X4 VPWR a_110_47# X VPB sky130_fd_pr__pfet_01v8_hvt ad=0.14 pd=1.28 as=0.14 ps=1.28 w=1 l=0.15
X5 VPWR a_110_47# X VPB sky130_fd_pr__pfet_01v8_hvt ad=0.265 pd=2.53 as=0.14 ps=1.28 w=1 l=0.15
X6 a_110_47# A VPWR VPB sky130_fd_pr__pfet_01v8_hvt ad=0.14 pd=1.28 as=0.265 ps=2.53 w=1 l=0.15
X7 a_110_47# A VGND VNB sky130_fd_pr__nfet_01v8 ad=0.0588 pd=0.7 as=0.0588 ps=0.7 w=0.42 l=0.15
X8 VGND a_110_47# X VNB sky130_fd_pr__nfet_01v8 ad=0.0588 pd=0.7 as=0.0588 ps=0.7 w=0.42 l=0.15
X9 X a_110_47# VGND VNB sky130_fd_pr__nfet_01v8 ad=0.0588 pd=0.7 as=0.0588 ps=0.7 w=0.42 l=0.15
X10 VGND a_110_47# X VNB sky130_fd_pr__nfet_01v8 ad=0.0588 pd=0.7 as=0.0588 ps=0.7 w=0.42 l=0.15
X11 a_110_47# A VPWR VPB sky130_fd_pr__pfet_01v8_hvt ad=0.14 pd=1.28 as=0.14 ps=1.28 w=1 l=0.15
X12 VGND A a_110_47# VNB sky130_fd_pr__nfet_01v8 ad=0.0588 pd=0.7 as=0.0588 ps=0.7 w=0.42 l=0.15
X13 VGND a_110_47# X VNB sky130_fd_pr__nfet_01v8 ad=0.05775 pd=0.695 as=0.0588 ps=0.7 w=0.42 l=0.15
X14 VPWR a_110_47# X VPB sky130_fd_pr__pfet_01v8_hvt ad=0.14 pd=1.28 as=0.14 ps=1.28 w=1 l=0.15
X15 X a_110_47# VPWR VPB sky130_fd_pr__pfet_01v8_hvt ad=0.14 pd=1.28 as=0.14 ps=1.28 w=1 l=0.15
X16 VGND A a_110_47# VNB sky130_fd_pr__nfet_01v8 ad=0.0588 pd=0.7 as=0.0588 ps=0.7 w=0.42 l=0.15
X17 VGND a_110_47# X VNB sky130_fd_pr__nfet_01v8 ad=0.1113 pd=1.37 as=0.0588 ps=0.7 w=0.42 l=0.15
X18 VPWR a_110_47# X VPB sky130_fd_pr__pfet_01v8_hvt ad=0.1375 pd=1.275 as=0.14 ps=1.28 w=1 l=0.15
X19 VGND a_110_47# X VNB sky130_fd_pr__nfet_01v8 ad=0.0588 pd=0.7 as=0.0588 ps=0.7 w=0.42 l=0.15
X20 X a_110_47# VPWR VPB sky130_fd_pr__pfet_01v8_hvt ad=0.14 pd=1.28 as=0.1375 ps=1.275 w=1 l=0.15
X21 a_110_47# A VGND VNB sky130_fd_pr__nfet_01v8 ad=0.0588 pd=0.7 as=0.1113 ps=1.37 w=0.42 l=0.15
X22 VPWR A a_110_47# VPB sky130_fd_pr__pfet_01v8_hvt ad=0.14 pd=1.28 as=0.14 ps=1.28 w=1 l=0.15
X23 VPWR a_110_47# X VPB sky130_fd_pr__pfet_01v8_hvt ad=0.14 pd=1.28 as=0.14 ps=1.28 w=1 l=0.15
X24 VPWR a_110_47# X VPB sky130_fd_pr__pfet_01v8_hvt ad=0.14 pd=1.28 as=0.14 ps=1.28 w=1 l=0.15
X25 VGND a_110_47# X VNB sky130_fd_pr__nfet_01v8 ad=0.0588 pd=0.7 as=0.0588 ps=0.7 w=0.42 l=0.15
X26 X a_110_47# VPWR VPB sky130_fd_pr__pfet_01v8_hvt ad=0.14 pd=1.28 as=0.14 ps=1.28 w=1 l=0.15
X27 VGND a_110_47# X VNB sky130_fd_pr__nfet_01v8 ad=0.0588 pd=0.7 as=0.0588 ps=0.7 w=0.42 l=0.15
X28 VGND a_110_47# X VNB sky130_fd_pr__nfet_01v8 ad=0.0588 pd=0.7 as=0.0588 ps=0.7 w=0.42 l=0.15
X29 X a_110_47# VGND VNB sky130_fd_pr__nfet_01v8 ad=0.0588 pd=0.7 as=0.0588 ps=0.7 w=0.42 l=0.15
X30 X a_110_47# VPWR VPB sky130_fd_pr__pfet_01v8_hvt ad=0.14 pd=1.28 as=0.14 ps=1.28 w=1 l=0.15
X31 X a_110_47# VPWR VPB sky130_fd_pr__pfet_01v8_hvt ad=0.14 pd=1.28 as=0.14 ps=1.28 w=1 l=0.15
X32 X a_110_47# VGND VNB sky130_fd_pr__nfet_01v8 ad=0.0588 pd=0.7 as=0.0588 ps=0.7 w=0.42 l=0.15
X33 VPWR a_110_47# X VPB sky130_fd_pr__pfet_01v8_hvt ad=0.14 pd=1.28 as=0.14 ps=1.28 w=1 l=0.15
X34 X a_110_47# VPWR VPB sky130_fd_pr__pfet_01v8_hvt ad=0.14 pd=1.28 as=0.14 ps=1.28 w=1 l=0.15
X35 X a_110_47# VGND VNB sky130_fd_pr__nfet_01v8 ad=0.0588 pd=0.7 as=0.0588 ps=0.7 w=0.42 l=0.15
X36 X a_110_47# VGND VNB sky130_fd_pr__nfet_01v8 ad=0.0588 pd=0.7 as=0.0588 ps=0.7 w=0.42 l=0.15
X37 X a_110_47# VGND VNB sky130_fd_pr__nfet_01v8 ad=0.0588 pd=0.7 as=0.0588 ps=0.7 w=0.42 l=0.15
X38 X a_110_47# VGND VNB sky130_fd_pr__nfet_01v8 ad=0.0588 pd=0.7 as=0.0588 ps=0.7 w=0.42 l=0.15
X39 X a_110_47# VGND VNB sky130_fd_pr__nfet_01v8 ad=0.0588 pd=0.7 as=0.05775 ps=0.695 w=0.42 l=0.15
.ends

.subckt sky130_fd_sc_hd__decap_6 VPWR VGND VPB VNB
X0 VPWR VGND VPWR VPB sky130_fd_pr__pfet_01v8_hvt ad=0.2262 pd=2.26 as=0 ps=0 w=0.87 l=1.97
X1 VGND VPWR VGND VNB sky130_fd_pr__nfet_01v8 ad=0.143 pd=1.62 as=0 ps=0 w=0.55 l=1.97
.ends

.subckt sky130_fd_sc_hd__clkbuf_8 X A VPB VNB VGND VPWR
X0 VPWR A a_110_47# VPB sky130_fd_pr__pfet_01v8_hvt ad=0.14 pd=1.28 as=0.14 ps=1.28 w=1 l=0.15
X1 VPWR a_110_47# X VPB sky130_fd_pr__pfet_01v8_hvt ad=0.14 pd=1.28 as=0.14 ps=1.28 w=1 l=0.15
X2 X a_110_47# VPWR VPB sky130_fd_pr__pfet_01v8_hvt ad=0.14 pd=1.28 as=0.14 ps=1.28 w=1 l=0.15
X3 a_110_47# A VPWR VPB sky130_fd_pr__pfet_01v8_hvt ad=0.14 pd=1.28 as=0.265 ps=2.53 w=1 l=0.15
X4 X a_110_47# VGND VNB sky130_fd_pr__nfet_01v8 ad=0.0588 pd=0.7 as=0.0588 ps=0.7 w=0.42 l=0.15
X5 X a_110_47# VPWR VPB sky130_fd_pr__pfet_01v8_hvt ad=0.14 pd=1.28 as=0.14 ps=1.28 w=1 l=0.15
X6 VGND a_110_47# X VNB sky130_fd_pr__nfet_01v8 ad=0.0588 pd=0.7 as=0.0588 ps=0.7 w=0.42 l=0.15
X7 VPWR a_110_47# X VPB sky130_fd_pr__pfet_01v8_hvt ad=0.14 pd=1.28 as=0.14 ps=1.28 w=1 l=0.15
X8 VGND A a_110_47# VNB sky130_fd_pr__nfet_01v8 ad=0.0588 pd=0.7 as=0.0588 ps=0.7 w=0.42 l=0.15
X9 VGND a_110_47# X VNB sky130_fd_pr__nfet_01v8 ad=0.1134 pd=1.38 as=0.0588 ps=0.7 w=0.42 l=0.15
X10 a_110_47# A VGND VNB sky130_fd_pr__nfet_01v8 ad=0.0588 pd=0.7 as=0.1113 ps=1.37 w=0.42 l=0.15
X11 VPWR a_110_47# X VPB sky130_fd_pr__pfet_01v8_hvt ad=0.14 pd=1.28 as=0.14 ps=1.28 w=1 l=0.15
X12 X a_110_47# VPWR VPB sky130_fd_pr__pfet_01v8_hvt ad=0.14 pd=1.28 as=0.14 ps=1.28 w=1 l=0.15
X13 VGND a_110_47# X VNB sky130_fd_pr__nfet_01v8 ad=0.0588 pd=0.7 as=0.0588 ps=0.7 w=0.42 l=0.15
X14 VGND a_110_47# X VNB sky130_fd_pr__nfet_01v8 ad=0.0588 pd=0.7 as=0.0588 ps=0.7 w=0.42 l=0.15
X15 X a_110_47# VPWR VPB sky130_fd_pr__pfet_01v8_hvt ad=0.14 pd=1.28 as=0.14 ps=1.28 w=1 l=0.15
X16 X a_110_47# VGND VNB sky130_fd_pr__nfet_01v8 ad=0.0588 pd=0.7 as=0.0588 ps=0.7 w=0.42 l=0.15
X17 VPWR a_110_47# X VPB sky130_fd_pr__pfet_01v8_hvt ad=0.265 pd=2.53 as=0.14 ps=1.28 w=1 l=0.15
X18 X a_110_47# VGND VNB sky130_fd_pr__nfet_01v8 ad=0.0588 pd=0.7 as=0.0588 ps=0.7 w=0.42 l=0.15
X19 X a_110_47# VGND VNB sky130_fd_pr__nfet_01v8 ad=0.0588 pd=0.7 as=0.0588 ps=0.7 w=0.42 l=0.15
.ends

.subckt sky130_fd_sc_hd__nor2_1 VPB VNB VGND VPWR A B Y
X0 VPWR A a_109_297# VPB sky130_fd_pr__pfet_01v8_hvt ad=0.26 pd=2.52 as=0.105 ps=1.21 w=1 l=0.15
X1 VGND A Y VNB sky130_fd_pr__nfet_01v8 ad=0.169 pd=1.82 as=0.08775 ps=0.92 w=0.65 l=0.15
X2 a_109_297# B Y VPB sky130_fd_pr__pfet_01v8_hvt ad=0.105 pd=1.21 as=0.26 ps=2.52 w=1 l=0.15
X3 Y B VGND VNB sky130_fd_pr__nfet_01v8 ad=0.08775 pd=0.92 as=0.169 ps=1.82 w=0.65 l=0.15
.ends

.subckt sky130_fd_sc_hd__mux2_1 VGND VPWR VPB VNB X A1 S A0
X0 VPWR a_505_21# a_535_374# VPB sky130_fd_pr__pfet_01v8_hvt ad=0.0693 pd=0.75 as=0.0441 ps=0.63 w=0.42 l=0.15
X1 a_505_21# S VPWR VPB sky130_fd_pr__pfet_01v8_hvt ad=0.1176 pd=1.4 as=0.0693 ps=0.75 w=0.42 l=0.15
X2 a_218_374# S VPWR VPB sky130_fd_pr__pfet_01v8_hvt ad=0.07665 pd=0.785 as=0.15835 ps=1.395 w=0.42 l=0.15
X3 VGND a_505_21# a_439_47# VNB sky130_fd_pr__nfet_01v8 ad=0.1449 pd=1.11 as=0.0693 ps=0.75 w=0.42 l=0.15
X4 a_76_199# A0 a_218_374# VPB sky130_fd_pr__pfet_01v8_hvt ad=0.1932 pd=1.34 as=0.07665 ps=0.785 w=0.42 l=0.15
X5 a_505_21# S VGND VNB sky130_fd_pr__nfet_01v8 ad=0.1092 pd=1.36 as=0.1449 ps=1.11 w=0.42 l=0.15
X6 a_439_47# A0 a_76_199# VNB sky130_fd_pr__nfet_01v8 ad=0.0693 pd=0.75 as=0.09975 ps=0.895 w=0.42 l=0.15
X7 a_535_374# A1 a_76_199# VPB sky130_fd_pr__pfet_01v8_hvt ad=0.0441 pd=0.63 as=0.1932 ps=1.34 w=0.42 l=0.15
X8 a_76_199# A1 a_218_47# VNB sky130_fd_pr__nfet_01v8 ad=0.09975 pd=0.895 as=0.0693 ps=0.75 w=0.42 l=0.15
X9 a_218_47# S VGND VNB sky130_fd_pr__nfet_01v8 ad=0.0693 pd=0.75 as=0.11285 ps=1.045 w=0.42 l=0.15
X10 VPWR a_76_199# X VPB sky130_fd_pr__pfet_01v8_hvt ad=0.15835 pd=1.395 as=0.26 ps=2.52 w=1 l=0.15
X11 VGND a_76_199# X VNB sky130_fd_pr__nfet_01v8 ad=0.11285 pd=1.045 as=0.169 ps=1.82 w=0.65 l=0.15
.ends

.subckt sky130_fd_sc_hd__xnor2_1 VGND VPWR B Y A VPB VNB
X0 a_377_297# A VPWR VPB sky130_fd_pr__pfet_01v8_hvt ad=0.105 pd=1.21 as=0.365 ps=1.73 w=1 l=0.15
X1 a_47_47# B VPWR VPB sky130_fd_pr__pfet_01v8_hvt ad=0.135 pd=1.27 as=0.3 ps=2.6 w=1 l=0.15
X2 a_129_47# B a_47_47# VNB sky130_fd_pr__nfet_01v8 ad=0.06825 pd=0.86 as=0.169 ps=1.82 w=0.65 l=0.15
X3 a_285_47# B VGND VNB sky130_fd_pr__nfet_01v8 ad=0.08775 pd=0.92 as=0.169 ps=1.82 w=0.65 l=0.15
X4 Y a_47_47# a_285_47# VNB sky130_fd_pr__nfet_01v8 ad=0.195 pd=1.9 as=0.08775 ps=0.92 w=0.65 l=0.15
X5 VGND A a_129_47# VNB sky130_fd_pr__nfet_01v8 ad=0.08775 pd=0.92 as=0.06825 ps=0.86 w=0.65 l=0.15
X6 VPWR A a_47_47# VPB sky130_fd_pr__pfet_01v8_hvt ad=0.365 pd=1.73 as=0.135 ps=1.27 w=1 l=0.15
X7 VPWR a_47_47# Y VPB sky130_fd_pr__pfet_01v8_hvt ad=0.36 pd=2.72 as=0.165 ps=1.33 w=1 l=0.15
X8 Y B a_377_297# VPB sky130_fd_pr__pfet_01v8_hvt ad=0.165 pd=1.33 as=0.105 ps=1.21 w=1 l=0.15
X9 a_285_47# A VGND VNB sky130_fd_pr__nfet_01v8 ad=0.169 pd=1.82 as=0.08775 ps=0.92 w=0.65 l=0.15
.ends

.subckt sky130_fd_sc_hd__a21o_1 VPWR VGND VPB VNB A2 A1 B1 X
X0 a_81_21# B1 VGND VNB sky130_fd_pr__nfet_01v8 ad=0.089375 pd=0.925 as=0.25675 ps=1.44 w=0.65 l=0.15
X1 a_299_297# B1 a_81_21# VPB sky130_fd_pr__pfet_01v8_hvt ad=0.1375 pd=1.275 as=0.26 ps=2.52 w=1 l=0.15
X2 VPWR a_81_21# X VPB sky130_fd_pr__pfet_01v8_hvt ad=0.26 pd=2.52 as=0.26 ps=2.52 w=1 l=0.15
X3 VPWR A1 a_299_297# VPB sky130_fd_pr__pfet_01v8_hvt ad=0.14 pd=1.28 as=0.1375 ps=1.275 w=1 l=0.15
X4 VGND a_81_21# X VNB sky130_fd_pr__nfet_01v8 ad=0.25675 pd=1.44 as=0.169 ps=1.82 w=0.65 l=0.15
X5 VGND A2 a_384_47# VNB sky130_fd_pr__nfet_01v8 ad=0.17225 pd=1.83 as=0.091 ps=0.93 w=0.65 l=0.15
X6 a_299_297# A2 VPWR VPB sky130_fd_pr__pfet_01v8_hvt ad=0.265 pd=2.53 as=0.14 ps=1.28 w=1 l=0.15
X7 a_384_47# A1 a_81_21# VNB sky130_fd_pr__nfet_01v8 ad=0.091 pd=0.93 as=0.089375 ps=0.925 w=0.65 l=0.15
.ends

.subckt sky130_fd_sc_hd__and2b_1 X A_N B VGND VPWR VPB VNB
X0 VPWR B a_207_413# VPB sky130_fd_pr__pfet_01v8_hvt ad=0.2279 pd=1.74 as=0.0609 ps=0.71 w=0.42 l=0.15
X1 X a_207_413# VPWR VPB sky130_fd_pr__pfet_01v8_hvt ad=0.26 pd=2.52 as=0.2279 ps=1.74 w=1 l=0.15
X2 a_297_47# a_27_413# a_207_413# VNB sky130_fd_pr__nfet_01v8 ad=0.0504 pd=0.66 as=0.1092 ps=1.36 w=0.42 l=0.15
X3 X a_207_413# VGND VNB sky130_fd_pr__nfet_01v8 ad=0.169 pd=1.82 as=0.1013 ps=0.99 w=0.65 l=0.15
X4 a_207_413# a_27_413# VPWR VPB sky130_fd_pr__pfet_01v8_hvt ad=0.0609 pd=0.71 as=0.0714 ps=0.76 w=0.42 l=0.15
X5 VPWR A_N a_27_413# VPB sky130_fd_pr__pfet_01v8_hvt ad=0.0714 pd=0.76 as=0.1092 ps=1.36 w=0.42 l=0.15
X6 VGND B a_297_47# VNB sky130_fd_pr__nfet_01v8 ad=0.1013 pd=0.99 as=0.0504 ps=0.66 w=0.42 l=0.15
X7 a_27_413# A_N VGND VNB sky130_fd_pr__nfet_01v8 ad=0.1092 pd=1.36 as=0.1092 ps=1.36 w=0.42 l=0.15
.ends

.subckt sky130_fd_sc_hd__nand2_1 VPB VNB VGND VPWR A Y B
X0 VPWR A Y VPB sky130_fd_pr__pfet_01v8_hvt ad=0.26 pd=2.52 as=0.135 ps=1.27 w=1 l=0.15
X1 Y A a_113_47# VNB sky130_fd_pr__nfet_01v8 ad=0.169 pd=1.82 as=0.08775 ps=0.92 w=0.65 l=0.15
X2 a_113_47# B VGND VNB sky130_fd_pr__nfet_01v8 ad=0.08775 pd=0.92 as=0.169 ps=1.82 w=0.65 l=0.15
X3 Y B VPWR VPB sky130_fd_pr__pfet_01v8_hvt ad=0.135 pd=1.27 as=0.26 ps=2.52 w=1 l=0.15
.ends

.subckt sky130_fd_sc_hd__and2_1 VPWR VGND X B A VPB VNB
X0 VPWR B a_59_75# VPB sky130_fd_pr__pfet_01v8_hvt ad=0.16655 pd=1.39 as=0.0567 ps=0.69 w=0.42 l=0.15
X1 X a_59_75# VPWR VPB sky130_fd_pr__pfet_01v8_hvt ad=0.475 pd=2.95 as=0.16655 ps=1.39 w=1 l=0.15
X2 VGND B a_145_75# VNB sky130_fd_pr__nfet_01v8 ad=0.1118 pd=1.04 as=0.0567 ps=0.69 w=0.42 l=0.15
X3 a_59_75# A VPWR VPB sky130_fd_pr__pfet_01v8_hvt ad=0.0567 pd=0.69 as=0.1176 ps=1.4 w=0.42 l=0.15
X4 X a_59_75# VGND VNB sky130_fd_pr__nfet_01v8 ad=0.182 pd=1.86 as=0.1118 ps=1.04 w=0.65 l=0.15
X5 a_145_75# A a_59_75# VNB sky130_fd_pr__nfet_01v8 ad=0.0567 pd=0.69 as=0.1176 ps=1.4 w=0.42 l=0.15
.ends

.subckt sky130_fd_sc_hd__o21a_2 VNB VPB VGND VPWR X B1 A2 A1
X0 VPWR A1 a_470_297# VPB sky130_fd_pr__pfet_01v8_hvt ad=0.265 pd=2.53 as=0.16 ps=1.32 w=1 l=0.15
X1 a_79_21# B1 VPWR VPB sky130_fd_pr__pfet_01v8_hvt ad=0.14 pd=1.28 as=0.4 ps=1.8 w=1 l=0.15
X2 VGND a_79_21# X VNB sky130_fd_pr__nfet_01v8 ad=0.17225 pd=1.83 as=0.089375 ps=0.925 w=0.65 l=0.15
X3 VGND A2 a_384_47# VNB sky130_fd_pr__nfet_01v8 ad=0.104 pd=0.97 as=0.091 ps=0.93 w=0.65 l=0.15
X4 a_470_297# A2 a_79_21# VPB sky130_fd_pr__pfet_01v8_hvt ad=0.16 pd=1.32 as=0.14 ps=1.28 w=1 l=0.15
X5 VPWR a_79_21# X VPB sky130_fd_pr__pfet_01v8_hvt ad=0.4 pd=1.8 as=0.1375 ps=1.275 w=1 l=0.15
X6 a_384_47# B1 a_79_21# VNB sky130_fd_pr__nfet_01v8 ad=0.091 pd=0.93 as=0.17225 ps=1.83 w=0.65 l=0.15
X7 a_384_47# A1 VGND VNB sky130_fd_pr__nfet_01v8 ad=0.17225 pd=1.83 as=0.104 ps=0.97 w=0.65 l=0.15
X8 X a_79_21# VPWR VPB sky130_fd_pr__pfet_01v8_hvt ad=0.1375 pd=1.275 as=0.26 ps=2.52 w=1 l=0.15
X9 X a_79_21# VGND VNB sky130_fd_pr__nfet_01v8 ad=0.089375 pd=0.925 as=0.169 ps=1.82 w=0.65 l=0.15
.ends

.subckt sky130_fd_sc_hd__buf_4 VPWR VGND X A VPB VNB
X0 VPWR a_27_47# X VPB sky130_fd_pr__pfet_01v8_hvt ad=0.26 pd=2.52 as=0.135 ps=1.27 w=1 l=0.15
X1 X a_27_47# VPWR VPB sky130_fd_pr__pfet_01v8_hvt ad=0.135 pd=1.27 as=0.135 ps=1.27 w=1 l=0.15
X2 VPWR a_27_47# X VPB sky130_fd_pr__pfet_01v8_hvt ad=0.135 pd=1.27 as=0.135 ps=1.27 w=1 l=0.15
X3 X a_27_47# VPWR VPB sky130_fd_pr__pfet_01v8_hvt ad=0.135 pd=1.27 as=0.135 ps=1.27 w=1 l=0.15
X4 X a_27_47# VGND VNB sky130_fd_pr__nfet_01v8 ad=0.08775 pd=0.92 as=0.08775 ps=0.92 w=0.65 l=0.15
X5 X a_27_47# VGND VNB sky130_fd_pr__nfet_01v8 ad=0.08775 pd=0.92 as=0.08775 ps=0.92 w=0.65 l=0.15
X6 VGND a_27_47# X VNB sky130_fd_pr__nfet_01v8 ad=0.08775 pd=0.92 as=0.08775 ps=0.92 w=0.65 l=0.15
X7 VGND a_27_47# X VNB sky130_fd_pr__nfet_01v8 ad=0.169 pd=1.82 as=0.08775 ps=0.92 w=0.65 l=0.15
X8 VPWR A a_27_47# VPB sky130_fd_pr__pfet_01v8_hvt ad=0.135 pd=1.27 as=0.26 ps=2.52 w=1 l=0.15
X9 VGND A a_27_47# VNB sky130_fd_pr__nfet_01v8 ad=0.08775 pd=0.92 as=0.169 ps=1.82 w=0.65 l=0.15
.ends

.subckt sky130_fd_sc_hd__o31ai_1 VPB VNB A1 A2 A3 Y B1 VPWR VGND
X0 Y B1 a_109_47# VNB sky130_fd_pr__nfet_01v8 ad=0.221 pd=1.98 as=0.19825 ps=1.26 w=0.65 l=0.15
X1 Y A3 a_193_297# VPB sky130_fd_pr__pfet_01v8_hvt ad=0.3925 pd=1.785 as=0.135 ps=1.27 w=1 l=0.15
X2 a_193_297# A2 a_109_297# VPB sky130_fd_pr__pfet_01v8_hvt ad=0.135 pd=1.27 as=0.135 ps=1.27 w=1 l=0.15
X3 VGND A2 a_109_47# VNB sky130_fd_pr__nfet_01v8 ad=0.08775 pd=0.92 as=0.08775 ps=0.92 w=0.65 l=0.15
X4 VPWR B1 Y VPB sky130_fd_pr__pfet_01v8_hvt ad=0.3 pd=2.6 as=0.3925 ps=1.785 w=1 l=0.15
X5 a_109_47# A3 VGND VNB sky130_fd_pr__nfet_01v8 ad=0.19825 pd=1.26 as=0.08775 ps=0.92 w=0.65 l=0.15
X6 a_109_297# A1 VPWR VPB sky130_fd_pr__pfet_01v8_hvt ad=0.135 pd=1.27 as=0.26 ps=2.52 w=1 l=0.15
X7 a_109_47# A1 VGND VNB sky130_fd_pr__nfet_01v8 ad=0.08775 pd=0.92 as=0.169 ps=1.82 w=0.65 l=0.15
.ends

.subckt sky130_fd_sc_hd__buf_1 VGND VPWR X A VPB VNB
X0 VPWR A a_27_47# VPB sky130_fd_pr__pfet_01v8_hvt ad=0.11455 pd=1.08 as=0.2054 ps=2.1 w=0.79 l=0.15
X1 X a_27_47# VGND VNB sky130_fd_pr__nfet_01v8 ad=0.1352 pd=1.56 as=0.0754 ps=0.81 w=0.52 l=0.15
X2 X a_27_47# VPWR VPB sky130_fd_pr__pfet_01v8_hvt ad=0.2054 pd=2.1 as=0.11455 ps=1.08 w=0.79 l=0.15
X3 VGND A a_27_47# VNB sky130_fd_pr__nfet_01v8 ad=0.0754 pd=0.81 as=0.1352 ps=1.56 w=0.52 l=0.15
.ends

.subckt sky130_fd_sc_hd__dfrtp_2 VGND VPWR VPB VNB CLK D RESET_B Q
X0 a_805_47# a_761_289# a_639_47# VNB sky130_fd_pr__nfet_01v8 ad=0.0441 pd=0.63 as=0.1401 ps=1.1 w=0.42 l=0.15
X1 a_1217_47# a_27_47# a_1108_47# VNB sky130_fd_pr__special_nfet_01v8 ad=0.0669 pd=0.75 as=0.0711 ps=0.755 w=0.36 l=0.15
X2 VGND a_1283_21# Q VNB sky130_fd_pr__nfet_01v8 ad=0.169 pd=1.82 as=0.08775 ps=0.92 w=0.65 l=0.15
X3 a_1283_21# a_1108_47# a_1462_47# VNB sky130_fd_pr__nfet_01v8 ad=0.1092 pd=1.36 as=0.06405 ps=0.725 w=0.42 l=0.15
X4 a_651_413# a_27_47# a_543_47# VPB sky130_fd_pr__pfet_01v8_hvt ad=0.1155 pd=0.97 as=0.07245 ps=0.765 w=0.42 l=0.15
X5 VPWR a_1283_21# Q VPB sky130_fd_pr__pfet_01v8_hvt ad=0.26 pd=2.52 as=0.135 ps=1.27 w=1 l=0.15
X6 a_1108_47# a_193_47# a_761_289# VNB sky130_fd_pr__special_nfet_01v8 ad=0.0711 pd=0.755 as=0.0999 ps=0.985 w=0.36 l=0.15
X7 VGND RESET_B a_805_47# VNB sky130_fd_pr__nfet_01v8 ad=0.1346 pd=1.15 as=0.0441 ps=0.63 w=0.42 l=0.15
X8 Q a_1283_21# VPWR VPB sky130_fd_pr__pfet_01v8_hvt ad=0.135 pd=1.27 as=0.3012 ps=2.66 w=1 l=0.15
X9 VPWR CLK a_27_47# VPB sky130_fd_pr__pfet_01v8_hvt ad=0.0864 pd=0.91 as=0.1664 ps=1.8 w=0.64 l=0.15
X10 a_448_47# D VPWR VPB sky130_fd_pr__pfet_01v8_hvt ad=0.0651 pd=0.73 as=0.1092 ps=1.36 w=0.42 l=0.15
X11 a_761_289# a_543_47# VGND VNB sky130_fd_pr__nfet_01v8 ad=0.0999 pd=0.985 as=0.1346 ps=1.15 w=0.64 l=0.15
X12 a_193_47# a_27_47# VGND VNB sky130_fd_pr__nfet_01v8 ad=0.1092 pd=1.36 as=0.0567 ps=0.69 w=0.42 l=0.15
X13 a_1108_47# a_27_47# a_761_289# VPB sky130_fd_pr__pfet_01v8_hvt ad=0.0588 pd=0.7 as=0.12915 ps=1.185 w=0.42 l=0.15
X14 a_1462_47# RESET_B VGND VNB sky130_fd_pr__nfet_01v8 ad=0.06405 pd=0.725 as=0.12495 ps=1.015 w=0.42 l=0.15
X15 a_543_47# a_27_47# a_448_47# VNB sky130_fd_pr__special_nfet_01v8 ad=0.0594 pd=0.69 as=0.066 ps=0.745 w=0.36 l=0.15
X16 a_543_47# a_193_47# a_448_47# VPB sky130_fd_pr__pfet_01v8_hvt ad=0.07245 pd=0.765 as=0.0651 ps=0.73 w=0.42 l=0.15
X17 a_448_47# D VGND VNB sky130_fd_pr__nfet_01v8 ad=0.066 pd=0.745 as=0.2205 ps=1.89 w=0.42 l=0.15
X18 VPWR a_1283_21# a_1270_413# VPB sky130_fd_pr__pfet_01v8_hvt ad=0.0819 pd=0.81 as=0.0567 ps=0.69 w=0.42 l=0.15
X19 VPWR a_1108_47# a_1283_21# VPB sky130_fd_pr__pfet_01v8_hvt ad=0.1134 pd=1.38 as=0.0567 ps=0.69 w=0.42 l=0.15
X20 a_1270_413# a_193_47# a_1108_47# VPB sky130_fd_pr__pfet_01v8_hvt ad=0.0567 pd=0.69 as=0.0588 ps=0.7 w=0.42 l=0.15
X21 a_193_47# a_27_47# VPWR VPB sky130_fd_pr__pfet_01v8_hvt ad=0.1664 pd=1.8 as=0.0864 ps=0.91 w=0.64 l=0.15
X22 a_1283_21# RESET_B VPWR VPB sky130_fd_pr__pfet_01v8_hvt ad=0.0567 pd=0.69 as=0.0819 ps=0.81 w=0.42 l=0.15
X23 VPWR a_761_289# a_651_413# VPB sky130_fd_pr__pfet_01v8_hvt ad=0.07035 pd=0.755 as=0.1155 ps=0.97 w=0.42 l=0.15
X24 Q a_1283_21# VGND VNB sky130_fd_pr__nfet_01v8 ad=0.08775 pd=0.92 as=0.2087 ps=2.02 w=0.65 l=0.15
X25 a_639_47# a_193_47# a_543_47# VNB sky130_fd_pr__special_nfet_01v8 ad=0.1401 pd=1.1 as=0.0594 ps=0.69 w=0.36 l=0.15
X26 VGND a_1283_21# a_1217_47# VNB sky130_fd_pr__nfet_01v8 ad=0.12495 pd=1.015 as=0.0669 ps=0.75 w=0.42 l=0.15
X27 a_651_413# RESET_B VPWR VPB sky130_fd_pr__pfet_01v8_hvt ad=0.1092 pd=1.36 as=0.07035 ps=0.755 w=0.42 l=0.15
X28 VGND CLK a_27_47# VNB sky130_fd_pr__nfet_01v8 ad=0.0567 pd=0.69 as=0.1092 ps=1.36 w=0.42 l=0.15
X29 a_761_289# a_543_47# VPWR VPB sky130_fd_pr__pfet_01v8_hvt ad=0.12915 pd=1.185 as=0.2184 ps=2.2 w=0.84 l=0.15
.ends

.subckt sky130_fd_sc_hd__dlymetal6s2s_1 VPWR VGND VPB VNB X A
X0 a_558_47# a_381_47# VPWR VPB sky130_fd_pr__pfet_01v8_hvt ad=0.26 pd=2.52 as=0.14075 ps=1.325 w=1 l=0.15
X1 VGND X a_381_47# VNB sky130_fd_pr__nfet_01v8 ad=0.097 pd=0.975 as=0.1092 ps=1.36 w=0.42 l=0.15
X2 a_841_47# a_664_47# VPWR VPB sky130_fd_pr__pfet_01v8_hvt ad=0.26 pd=2.52 as=0.14075 ps=1.325 w=1 l=0.15
X3 VPWR A a_62_47# VPB sky130_fd_pr__pfet_01v8_hvt ad=0.14075 pd=1.325 as=0.1092 ps=1.36 w=0.42 l=0.15
X4 VGND A a_62_47# VNB sky130_fd_pr__nfet_01v8 ad=0.097 pd=0.975 as=0.1092 ps=1.36 w=0.42 l=0.15
X5 a_558_47# a_381_47# VGND VNB sky130_fd_pr__nfet_01v8 ad=0.169 pd=1.82 as=0.097 ps=0.975 w=0.65 l=0.15
X6 X a_62_47# VPWR VPB sky130_fd_pr__pfet_01v8_hvt ad=0.26 pd=2.52 as=0.14075 ps=1.325 w=1 l=0.15
X7 VPWR X a_381_47# VPB sky130_fd_pr__pfet_01v8_hvt ad=0.14075 pd=1.325 as=0.1092 ps=1.36 w=0.42 l=0.15
X8 a_841_47# a_664_47# VGND VNB sky130_fd_pr__nfet_01v8 ad=0.169 pd=1.82 as=0.097 ps=0.975 w=0.65 l=0.15
X9 X a_62_47# VGND VNB sky130_fd_pr__nfet_01v8 ad=0.169 pd=1.82 as=0.097 ps=0.975 w=0.65 l=0.15
X10 VPWR a_558_47# a_664_47# VPB sky130_fd_pr__pfet_01v8_hvt ad=0.14075 pd=1.325 as=0.1092 ps=1.36 w=0.42 l=0.15
X11 VGND a_558_47# a_664_47# VNB sky130_fd_pr__nfet_01v8 ad=0.097 pd=0.975 as=0.1092 ps=1.36 w=0.42 l=0.15
.ends

.subckt sky130_fd_sc_hd__nand3_1 VPB VNB VGND VPWR A B Y C
X0 VPWR B Y VPB sky130_fd_pr__pfet_01v8_hvt ad=0.165 pd=1.33 as=0.135 ps=1.27 w=1 l=0.15
X1 Y A VPWR VPB sky130_fd_pr__pfet_01v8_hvt ad=0.26 pd=2.52 as=0.165 ps=1.33 w=1 l=0.15
X2 a_193_47# B a_109_47# VNB sky130_fd_pr__nfet_01v8 ad=0.10725 pd=0.98 as=0.08775 ps=0.92 w=0.65 l=0.15
X3 Y A a_193_47# VNB sky130_fd_pr__nfet_01v8 ad=0.169 pd=1.82 as=0.10725 ps=0.98 w=0.65 l=0.15
X4 Y C VPWR VPB sky130_fd_pr__pfet_01v8_hvt ad=0.135 pd=1.27 as=0.26 ps=2.52 w=1 l=0.15
X5 a_109_47# C VGND VNB sky130_fd_pr__nfet_01v8 ad=0.08775 pd=0.92 as=0.169 ps=1.82 w=0.65 l=0.15
.ends

.subckt sky130_fd_sc_hd__o21ai_1 VGND VPWR A2 B1 Y A1 VPB VNB
X0 Y A2 a_109_297# VPB sky130_fd_pr__pfet_01v8_hvt ad=0.174 pd=1.39 as=0.105 ps=1.21 w=1 l=0.15
X1 VPWR B1 Y VPB sky130_fd_pr__pfet_01v8_hvt ad=0.182 pd=1.92 as=0.174 ps=1.39 w=0.7 l=0.15
X2 a_27_47# A2 VGND VNB sky130_fd_pr__nfet_01v8 ad=0.08775 pd=0.92 as=0.10725 ps=0.98 w=0.65 l=0.15
X3 Y B1 a_27_47# VNB sky130_fd_pr__nfet_01v8 ad=0.169 pd=1.82 as=0.08775 ps=0.92 w=0.65 l=0.15
X4 a_109_297# A1 VPWR VPB sky130_fd_pr__pfet_01v8_hvt ad=0.105 pd=1.21 as=0.26 ps=2.52 w=1 l=0.15
X5 VGND A1 a_27_47# VNB sky130_fd_pr__nfet_01v8 ad=0.10725 pd=0.98 as=0.169 ps=1.82 w=0.65 l=0.15
.ends