* NGSPICE file created from inv_dcdl_glitchless.ext - technology: sky130A

.subckt sky130_fd_sc_hd__inv_1 VPB VNB VGND VPWR A Y
X0 Y A VGND VNB sky130_fd_pr__nfet_01v8 ad=0.169 pd=1.82 as=0.169 ps=1.82 w=0.65 l=0.15
X1 Y A VPWR VPB sky130_fd_pr__pfet_01v8_hvt ad=0.26 pd=2.52 as=0.26 ps=2.52 w=1 l=0.15
.ends

.subckt sky130_ef_sc_hd__decap_12 VGND VPWR VPB VNB
X0 VPWR VGND VPWR VPB sky130_fd_pr__pfet_01v8_hvt ad=0.2262 pd=2.26 as=0 ps=0 w=0.87 l=4.73
X1 VGND VPWR VGND VNB sky130_fd_pr__nfet_01v8 ad=0.143 pd=1.62 as=0 ps=0 w=0.55 l=4.73
.ends

.subckt sky130_fd_sc_hd__decap_3 VPWR VGND VPB VNB
X0 VPWR VGND VPWR VPB sky130_fd_pr__pfet_01v8_hvt ad=0.2262 pd=2.26 as=0 ps=0 w=0.87 l=0.59
X1 VGND VPWR VGND VNB sky130_fd_pr__nfet_01v8 ad=0.143 pd=1.62 as=0 ps=0 w=0.55 l=0.59
.ends

.subckt sky130_fd_sc_hd__inv_2 VPB VNB VPWR VGND Y A
X0 Y A VPWR VPB sky130_fd_pr__pfet_01v8_hvt ad=0.135 pd=1.27 as=0.26 ps=2.52 w=1 l=0.15
X1 VGND A Y VNB sky130_fd_pr__nfet_01v8 ad=0.169 pd=1.82 as=0.08775 ps=0.92 w=0.65 l=0.15
X2 Y A VGND VNB sky130_fd_pr__nfet_01v8 ad=0.08775 pd=0.92 as=0.169 ps=1.82 w=0.65 l=0.15
X3 VPWR A Y VPB sky130_fd_pr__pfet_01v8_hvt ad=0.26 pd=2.52 as=0.135 ps=1.27 w=1 l=0.15
.ends

.subckt sky130_fd_sc_hd__dfrtp_2 VGND VPWR VPB VNB CLK D RESET_B Q
X0 a_805_47# a_761_289# a_639_47# VNB sky130_fd_pr__nfet_01v8 ad=0.0441 pd=0.63 as=0.1401 ps=1.1 w=0.42 l=0.15
X1 a_1217_47# a_27_47# a_1108_47# VNB sky130_fd_pr__special_nfet_01v8 ad=0.0669 pd=0.75 as=0.0711 ps=0.755 w=0.36 l=0.15
X2 VGND a_1283_21# Q VNB sky130_fd_pr__nfet_01v8 ad=0.169 pd=1.82 as=0.08775 ps=0.92 w=0.65 l=0.15
X3 a_1283_21# a_1108_47# a_1462_47# VNB sky130_fd_pr__nfet_01v8 ad=0.1092 pd=1.36 as=0.06405 ps=0.725 w=0.42 l=0.15
X4 a_651_413# a_27_47# a_543_47# VPB sky130_fd_pr__pfet_01v8_hvt ad=0.1155 pd=0.97 as=0.07245 ps=0.765 w=0.42 l=0.15
X5 VPWR a_1283_21# Q VPB sky130_fd_pr__pfet_01v8_hvt ad=0.26 pd=2.52 as=0.135 ps=1.27 w=1 l=0.15
X6 a_1108_47# a_193_47# a_761_289# VNB sky130_fd_pr__special_nfet_01v8 ad=0.0711 pd=0.755 as=0.0999 ps=0.985 w=0.36 l=0.15
X7 VGND RESET_B a_805_47# VNB sky130_fd_pr__nfet_01v8 ad=0.1346 pd=1.15 as=0.0441 ps=0.63 w=0.42 l=0.15
X8 Q a_1283_21# VPWR VPB sky130_fd_pr__pfet_01v8_hvt ad=0.135 pd=1.27 as=0.3012 ps=2.66 w=1 l=0.15
X9 VPWR CLK a_27_47# VPB sky130_fd_pr__pfet_01v8_hvt ad=0.0864 pd=0.91 as=0.1664 ps=1.8 w=0.64 l=0.15
X10 a_448_47# D VPWR VPB sky130_fd_pr__pfet_01v8_hvt ad=0.0651 pd=0.73 as=0.1092 ps=1.36 w=0.42 l=0.15
X11 a_761_289# a_543_47# VGND VNB sky130_fd_pr__nfet_01v8 ad=0.0999 pd=0.985 as=0.1346 ps=1.15 w=0.64 l=0.15
X12 a_193_47# a_27_47# VGND VNB sky130_fd_pr__nfet_01v8 ad=0.1092 pd=1.36 as=0.0567 ps=0.69 w=0.42 l=0.15
X13 a_1108_47# a_27_47# a_761_289# VPB sky130_fd_pr__pfet_01v8_hvt ad=0.0588 pd=0.7 as=0.12915 ps=1.185 w=0.42 l=0.15
X14 a_1462_47# RESET_B VGND VNB sky130_fd_pr__nfet_01v8 ad=0.06405 pd=0.725 as=0.12495 ps=1.015 w=0.42 l=0.15
X15 a_543_47# a_27_47# a_448_47# VNB sky130_fd_pr__special_nfet_01v8 ad=0.0594 pd=0.69 as=0.066 ps=0.745 w=0.36 l=0.15
X16 a_543_47# a_193_47# a_448_47# VPB sky130_fd_pr__pfet_01v8_hvt ad=0.07245 pd=0.765 as=0.0651 ps=0.73 w=0.42 l=0.15
X17 a_448_47# D VGND VNB sky130_fd_pr__nfet_01v8 ad=0.066 pd=0.745 as=0.2205 ps=1.89 w=0.42 l=0.15
X18 VPWR a_1283_21# a_1270_413# VPB sky130_fd_pr__pfet_01v8_hvt ad=0.0819 pd=0.81 as=0.0567 ps=0.69 w=0.42 l=0.15
X19 VPWR a_1108_47# a_1283_21# VPB sky130_fd_pr__pfet_01v8_hvt ad=0.1134 pd=1.38 as=0.0567 ps=0.69 w=0.42 l=0.15
X20 a_1270_413# a_193_47# a_1108_47# VPB sky130_fd_pr__pfet_01v8_hvt ad=0.0567 pd=0.69 as=0.0588 ps=0.7 w=0.42 l=0.15
X21 a_193_47# a_27_47# VPWR VPB sky130_fd_pr__pfet_01v8_hvt ad=0.1664 pd=1.8 as=0.0864 ps=0.91 w=0.64 l=0.15
X22 a_1283_21# RESET_B VPWR VPB sky130_fd_pr__pfet_01v8_hvt ad=0.0567 pd=0.69 as=0.0819 ps=0.81 w=0.42 l=0.15
X23 VPWR a_761_289# a_651_413# VPB sky130_fd_pr__pfet_01v8_hvt ad=0.07035 pd=0.755 as=0.1155 ps=0.97 w=0.42 l=0.15
X24 Q a_1283_21# VGND VNB sky130_fd_pr__nfet_01v8 ad=0.08775 pd=0.92 as=0.2087 ps=2.02 w=0.65 l=0.15
X25 a_639_47# a_193_47# a_543_47# VNB sky130_fd_pr__special_nfet_01v8 ad=0.1401 pd=1.1 as=0.0594 ps=0.69 w=0.36 l=0.15
X26 VGND a_1283_21# a_1217_47# VNB sky130_fd_pr__nfet_01v8 ad=0.12495 pd=1.015 as=0.0669 ps=0.75 w=0.42 l=0.15
X27 a_651_413# RESET_B VPWR VPB sky130_fd_pr__pfet_01v8_hvt ad=0.1092 pd=1.36 as=0.07035 ps=0.755 w=0.42 l=0.15
X28 VGND CLK a_27_47# VNB sky130_fd_pr__nfet_01v8 ad=0.0567 pd=0.69 as=0.1092 ps=1.36 w=0.42 l=0.15
X29 a_761_289# a_543_47# VPWR VPB sky130_fd_pr__pfet_01v8_hvt ad=0.12915 pd=1.185 as=0.2184 ps=2.2 w=0.84 l=0.15
.ends

.subckt sky130_fd_sc_hd__decap_6 VPWR VGND VPB VNB
X0 VPWR VGND VPWR VPB sky130_fd_pr__pfet_01v8_hvt ad=0.2262 pd=2.26 as=0 ps=0 w=0.87 l=1.97
X1 VGND VPWR VGND VNB sky130_fd_pr__nfet_01v8 ad=0.143 pd=1.62 as=0 ps=0 w=0.55 l=1.97
.ends

.subckt sky130_fd_sc_hd__and3b_2 VGND VPWR VNB VPB X C B A_N
X0 a_109_53# A_N VPWR VPB sky130_fd_pr__pfet_01v8_hvt ad=0.1092 pd=1.36 as=0.1092 ps=1.36 w=0.42 l=0.15
X1 X a_215_311# VGND VNB sky130_fd_pr__nfet_01v8 ad=0.08775 pd=0.92 as=0.12715 ps=1.095 w=0.65 l=0.15
X2 a_109_53# A_N VGND VNB sky130_fd_pr__nfet_01v8 ad=0.1176 pd=1.4 as=0.1092 ps=1.36 w=0.42 l=0.15
X3 VGND C a_373_53# VNB sky130_fd_pr__nfet_01v8 ad=0.12715 pd=1.095 as=0.05355 ps=0.675 w=0.42 l=0.15
X4 VGND a_215_311# X VNB sky130_fd_pr__nfet_01v8 ad=0.169 pd=1.82 as=0.08775 ps=0.92 w=0.65 l=0.15
X5 VPWR C a_215_311# VPB sky130_fd_pr__pfet_01v8_hvt ad=0.14575 pd=1.335 as=0.074375 ps=0.815 w=0.42 l=0.15
X6 VPWR a_215_311# X VPB sky130_fd_pr__pfet_01v8_hvt ad=0.26 pd=2.52 as=0.135 ps=1.27 w=1 l=0.15
X7 X a_215_311# VPWR VPB sky130_fd_pr__pfet_01v8_hvt ad=0.135 pd=1.27 as=0.14575 ps=1.335 w=1 l=0.15
X8 a_301_53# a_109_53# a_215_311# VNB sky130_fd_pr__nfet_01v8 ad=0.0441 pd=0.63 as=0.1092 ps=1.36 w=0.42 l=0.15
X9 a_215_311# B VPWR VPB sky130_fd_pr__pfet_01v8_hvt ad=0.074375 pd=0.815 as=0.0567 ps=0.69 w=0.42 l=0.15
X10 a_373_53# B a_301_53# VNB sky130_fd_pr__nfet_01v8 ad=0.05355 pd=0.675 as=0.0441 ps=0.63 w=0.42 l=0.15
X11 VPWR a_109_53# a_215_311# VPB sky130_fd_pr__pfet_01v8_hvt ad=0.0567 pd=0.69 as=0.1092 ps=1.36 w=0.42 l=0.15
.ends

.subckt sky130_fd_sc_hd__decap_4 VGND VPWR VPB VNB
X0 VPWR VGND VPWR VPB sky130_fd_pr__pfet_01v8_hvt ad=0.2262 pd=2.26 as=0 ps=0 w=0.87 l=1.05
X1 VGND VPWR VGND VNB sky130_fd_pr__nfet_01v8 ad=0.143 pd=1.62 as=0 ps=0 w=0.55 l=1.05
.ends

.subckt sky130_fd_sc_hd__and2_2 VPWR VGND A X B VPB VNB
X0 X a_61_75# VPWR VPB sky130_fd_pr__pfet_01v8_hvt ad=0.195 pd=1.39 as=0.16655 ps=1.39 w=1 l=0.15
X1 VPWR a_61_75# X VPB sky130_fd_pr__pfet_01v8_hvt ad=0.38 pd=2.76 as=0.195 ps=1.39 w=1 l=0.15
X2 VPWR B a_61_75# VPB sky130_fd_pr__pfet_01v8_hvt ad=0.16655 pd=1.39 as=0.0567 ps=0.69 w=0.42 l=0.15
X3 VGND B a_147_75# VNB sky130_fd_pr__nfet_01v8 ad=0.1118 pd=1.04 as=0.0567 ps=0.69 w=0.42 l=0.15
X4 X a_61_75# VGND VNB sky130_fd_pr__nfet_01v8 ad=0.12675 pd=1.04 as=0.1118 ps=1.04 w=0.65 l=0.15
X5 VGND a_61_75# X VNB sky130_fd_pr__nfet_01v8 ad=0.247 pd=2.06 as=0.12675 ps=1.04 w=0.65 l=0.15
X6 a_61_75# A VPWR VPB sky130_fd_pr__pfet_01v8_hvt ad=0.0567 pd=0.69 as=0.1176 ps=1.4 w=0.42 l=0.15
X7 a_147_75# A a_61_75# VNB sky130_fd_pr__nfet_01v8 ad=0.0567 pd=0.69 as=0.1176 ps=1.4 w=0.42 l=0.15
.ends

.subckt sky130_fd_sc_hd__nand2b_2 VNB VPB VGND VPWR A_N Y B
X0 Y B VPWR VPB sky130_fd_pr__pfet_01v8_hvt ad=0.135 pd=1.27 as=0.335 ps=1.67 w=1 l=0.15
X1 VGND A_N a_27_93# VNB sky130_fd_pr__nfet_01v8 ad=0.194 pd=1.95 as=0.1092 ps=1.36 w=0.42 l=0.15
X2 VGND B a_229_47# VNB sky130_fd_pr__nfet_01v8 ad=0.08775 pd=0.92 as=0.08775 ps=0.92 w=0.65 l=0.15
X3 Y a_27_93# a_229_47# VNB sky130_fd_pr__nfet_01v8 ad=0.08775 pd=0.92 as=0.169 ps=1.82 w=0.65 l=0.15
X4 a_229_47# a_27_93# Y VNB sky130_fd_pr__nfet_01v8 ad=0.08775 pd=0.92 as=0.08775 ps=0.92 w=0.65 l=0.15
X5 Y a_27_93# VPWR VPB sky130_fd_pr__pfet_01v8_hvt ad=0.165 pd=1.33 as=0.1468 ps=1.34 w=1 l=0.15
X6 VPWR a_27_93# Y VPB sky130_fd_pr__pfet_01v8_hvt ad=0.335 pd=1.67 as=0.165 ps=1.33 w=1 l=0.15
X7 VPWR B Y VPB sky130_fd_pr__pfet_01v8_hvt ad=0.275 pd=2.55 as=0.135 ps=1.27 w=1 l=0.15
X8 a_229_47# B VGND VNB sky130_fd_pr__nfet_01v8 ad=0.169 pd=1.82 as=0.08775 ps=0.92 w=0.65 l=0.15
X9 VPWR A_N a_27_93# VPB sky130_fd_pr__pfet_01v8_hvt ad=0.1468 pd=1.34 as=0.1092 ps=1.36 w=0.42 l=0.15
.ends

.subckt sky130_fd_sc_hd__decap_8 VPWR VGND VPB VNB
X0 VPWR VGND VPWR VPB sky130_fd_pr__pfet_01v8_hvt ad=0.2262 pd=2.26 as=0 ps=0 w=0.87 l=2.89
X1 VGND VPWR VGND VNB sky130_fd_pr__nfet_01v8 ad=0.143 pd=1.62 as=0 ps=0 w=0.55 l=2.89
.ends

.subckt sky130_fd_sc_hd__and3_2 B X A C VPWR VGND VPB VNB
X0 VPWR a_29_311# X VPB sky130_fd_pr__pfet_01v8_hvt ad=0.26 pd=2.52 as=0.135 ps=1.27 w=1 l=0.15
X1 X a_29_311# VPWR VPB sky130_fd_pr__pfet_01v8_hvt ad=0.135 pd=1.27 as=0.15075 ps=1.345 w=1 l=0.15
X2 VPWR A a_29_311# VPB sky130_fd_pr__pfet_01v8_hvt ad=0.0567 pd=0.69 as=0.1092 ps=1.36 w=0.42 l=0.15
X3 VGND a_29_311# X VNB sky130_fd_pr__nfet_01v8 ad=0.17875 pd=1.85 as=0.08775 ps=0.92 w=0.65 l=0.15
X4 a_184_53# B a_112_53# VNB sky130_fd_pr__nfet_01v8 ad=0.05355 pd=0.675 as=0.0441 ps=0.63 w=0.42 l=0.15
X5 VPWR C a_29_311# VPB sky130_fd_pr__pfet_01v8_hvt ad=0.15075 pd=1.345 as=0.074375 ps=0.815 w=0.42 l=0.15
X6 X a_29_311# VGND VNB sky130_fd_pr__nfet_01v8 ad=0.08775 pd=0.92 as=0.1304 ps=1.105 w=0.65 l=0.15
X7 a_112_53# A a_29_311# VNB sky130_fd_pr__nfet_01v8 ad=0.0441 pd=0.63 as=0.1092 ps=1.36 w=0.42 l=0.15
X8 a_29_311# B VPWR VPB sky130_fd_pr__pfet_01v8_hvt ad=0.074375 pd=0.815 as=0.0567 ps=0.69 w=0.42 l=0.15
X9 VGND C a_184_53# VNB sky130_fd_pr__nfet_01v8 ad=0.1304 pd=1.105 as=0.05355 ps=0.675 w=0.42 l=0.15
.ends

.subckt sky130_fd_sc_hd__and2b_2 VNB VPB VPWR VGND A_N X B
X0 VPWR a_212_413# X VPB sky130_fd_pr__pfet_01v8_hvt ad=0.26 pd=2.52 as=0.135 ps=1.27 w=1 l=0.15
X1 a_297_47# a_27_413# a_212_413# VNB sky130_fd_pr__nfet_01v8 ad=0.0567 pd=0.69 as=0.1092 ps=1.36 w=0.42 l=0.15
X2 X a_212_413# VPWR VPB sky130_fd_pr__pfet_01v8_hvt ad=0.135 pd=1.27 as=0.22895 ps=1.745 w=1 l=0.15
X3 X a_212_413# VGND VNB sky130_fd_pr__nfet_01v8 ad=0.08775 pd=0.92 as=0.101875 ps=0.99 w=0.65 l=0.15
X4 a_212_413# a_27_413# VPWR VPB sky130_fd_pr__pfet_01v8_hvt ad=0.0609 pd=0.71 as=0.07665 ps=0.785 w=0.42 l=0.15
X5 VPWR A_N a_27_413# VPB sky130_fd_pr__pfet_01v8_hvt ad=0.07665 pd=0.785 as=0.1092 ps=1.36 w=0.42 l=0.15
X6 VPWR B a_212_413# VPB sky130_fd_pr__pfet_01v8_hvt ad=0.22895 pd=1.745 as=0.0609 ps=0.71 w=0.42 l=0.15
X7 VGND B a_297_47# VNB sky130_fd_pr__nfet_01v8 ad=0.101875 pd=0.99 as=0.0567 ps=0.69 w=0.42 l=0.15
X8 VGND a_212_413# X VNB sky130_fd_pr__nfet_01v8 ad=0.1755 pd=1.84 as=0.08775 ps=0.92 w=0.65 l=0.15
X9 a_27_413# A_N VGND VNB sky130_fd_pr__nfet_01v8 ad=0.1092 pd=1.36 as=0.1092 ps=1.36 w=0.42 l=0.15
.ends

.subckt sky130_fd_sc_hd__nor2_2 VPB VNB VGND VPWR B Y A
X0 Y B a_27_297# VPB sky130_fd_pr__pfet_01v8_hvt ad=0.135 pd=1.27 as=0.135 ps=1.27 w=1 l=0.15
X1 Y B VGND VNB sky130_fd_pr__nfet_01v8 ad=0.08775 pd=0.92 as=0.08775 ps=0.92 w=0.65 l=0.15
X2 a_27_297# A VPWR VPB sky130_fd_pr__pfet_01v8_hvt ad=0.135 pd=1.27 as=0.135 ps=1.27 w=1 l=0.15
X3 VGND A Y VNB sky130_fd_pr__nfet_01v8 ad=0.08775 pd=0.92 as=0.08775 ps=0.92 w=0.65 l=0.15
X4 Y A VGND VNB sky130_fd_pr__nfet_01v8 ad=0.08775 pd=0.92 as=0.182 ps=1.86 w=0.65 l=0.15
X5 VGND B Y VNB sky130_fd_pr__nfet_01v8 ad=0.169 pd=1.82 as=0.08775 ps=0.92 w=0.65 l=0.15
X6 VPWR A a_27_297# VPB sky130_fd_pr__pfet_01v8_hvt ad=0.135 pd=1.27 as=0.28 ps=2.56 w=1 l=0.15
X7 a_27_297# B Y VPB sky130_fd_pr__pfet_01v8_hvt ad=0.26 pd=2.52 as=0.135 ps=1.27 w=1 l=0.15
.ends

.subckt sky130_fd_sc_hd__or3b_2 VPWR VGND VPB VNB C_N X A B
X0 a_388_297# A VPWR VPB sky130_fd_pr__pfet_01v8_hvt ad=0.0567 pd=0.69 as=0.14825 ps=1.34 w=0.42 l=0.15
X1 VPWR C_N a_27_47# VPB sky130_fd_pr__pfet_01v8_hvt ad=0.14575 pd=1.335 as=0.1092 ps=1.36 w=0.42 l=0.15
X2 VGND a_176_21# X VNB sky130_fd_pr__nfet_01v8 ad=0.101875 pd=0.99 as=0.08775 ps=0.92 w=0.65 l=0.15
X3 X a_176_21# VGND VNB sky130_fd_pr__nfet_01v8 ad=0.08775 pd=0.92 as=0.10025 ps=0.985 w=0.65 l=0.15
X4 VPWR a_176_21# X VPB sky130_fd_pr__pfet_01v8_hvt ad=0.14825 pd=1.34 as=0.135 ps=1.27 w=1 l=0.15
X5 VGND B a_176_21# VNB sky130_fd_pr__nfet_01v8 ad=0.0567 pd=0.69 as=0.0567 ps=0.69 w=0.42 l=0.15
X6 X a_176_21# VPWR VPB sky130_fd_pr__pfet_01v8_hvt ad=0.135 pd=1.27 as=0.14575 ps=1.335 w=1 l=0.15
X7 a_176_21# a_27_47# a_472_297# VPB sky130_fd_pr__pfet_01v8_hvt ad=0.1092 pd=1.36 as=0.0567 ps=0.69 w=0.42 l=0.15
X8 a_472_297# B a_388_297# VPB sky130_fd_pr__pfet_01v8_hvt ad=0.0567 pd=0.69 as=0.0567 ps=0.69 w=0.42 l=0.15
X9 a_176_21# A VGND VNB sky130_fd_pr__nfet_01v8 ad=0.0567 pd=0.69 as=0.101875 ps=0.99 w=0.42 l=0.15
X10 a_176_21# a_27_47# VGND VNB sky130_fd_pr__nfet_01v8 ad=0.1092 pd=1.36 as=0.0567 ps=0.69 w=0.42 l=0.15
X11 VGND C_N a_27_47# VNB sky130_fd_pr__nfet_01v8 ad=0.10025 pd=0.985 as=0.1092 ps=1.36 w=0.42 l=0.15
.ends

.subckt sky130_fd_sc_hd__nand2_2 VPB VNB VGND VPWR Y A B
X0 VPWR A Y VPB sky130_fd_pr__pfet_01v8_hvt ad=0.26 pd=2.52 as=0.135 ps=1.27 w=1 l=0.15
X1 Y A VPWR VPB sky130_fd_pr__pfet_01v8_hvt ad=0.135 pd=1.27 as=0.135 ps=1.27 w=1 l=0.15
X2 VPWR B Y VPB sky130_fd_pr__pfet_01v8_hvt ad=0.135 pd=1.27 as=0.135 ps=1.27 w=1 l=0.15
X3 a_27_47# B VGND VNB sky130_fd_pr__nfet_01v8 ad=0.08775 pd=0.92 as=0.08775 ps=0.92 w=0.65 l=0.15
X4 a_27_47# A Y VNB sky130_fd_pr__nfet_01v8 ad=0.169 pd=1.82 as=0.08775 ps=0.92 w=0.65 l=0.15
X5 Y A a_27_47# VNB sky130_fd_pr__nfet_01v8 ad=0.08775 pd=0.92 as=0.08775 ps=0.92 w=0.65 l=0.15
X6 Y B VPWR VPB sky130_fd_pr__pfet_01v8_hvt ad=0.135 pd=1.27 as=0.26 ps=2.52 w=1 l=0.15
X7 VGND B a_27_47# VNB sky130_fd_pr__nfet_01v8 ad=0.08775 pd=0.92 as=0.169 ps=1.82 w=0.65 l=0.15
.ends

.subckt sky130_fd_sc_hd__and4b_2 VPWR VGND VNB VPB A_N B C D X
X0 VPWR a_193_413# X VPB sky130_fd_pr__pfet_01v8_hvt ad=0.26 pd=2.52 as=0.1525 ps=1.305 w=1 l=0.15
X1 a_297_47# a_27_413# a_193_413# VNB sky130_fd_pr__nfet_01v8 ad=0.0441 pd=0.63 as=0.1092 ps=1.36 w=0.42 l=0.15
X2 a_369_47# B a_297_47# VNB sky130_fd_pr__nfet_01v8 ad=0.0735 pd=0.77 as=0.0441 ps=0.63 w=0.42 l=0.15
X3 X a_193_413# VGND VNB sky130_fd_pr__nfet_01v8 ad=0.099125 pd=0.955 as=0.103975 ps=1 w=0.65 l=0.15
X4 VPWR D a_193_413# VPB sky130_fd_pr__pfet_01v8_hvt ad=0.14325 pd=1.33 as=0.06615 ps=0.735 w=0.42 l=0.15
X5 VPWR A_N a_27_413# VPB sky130_fd_pr__pfet_01v8_hvt ad=0.0567 pd=0.69 as=0.1092 ps=1.36 w=0.42 l=0.15
X6 VGND D a_469_47# VNB sky130_fd_pr__nfet_01v8 ad=0.103975 pd=1 as=0.06195 ps=0.715 w=0.42 l=0.15
X7 VGND a_193_413# X VNB sky130_fd_pr__nfet_01v8 ad=0.169 pd=1.82 as=0.099125 ps=0.955 w=0.65 l=0.15
X8 VPWR B a_193_413# VPB sky130_fd_pr__pfet_01v8_hvt ad=0.1281 pd=1.03 as=0.0987 ps=0.89 w=0.42 l=0.15
X9 a_193_413# C VPWR VPB sky130_fd_pr__pfet_01v8_hvt ad=0.06615 pd=0.735 as=0.1281 ps=1.03 w=0.42 l=0.15
X10 X a_193_413# VPWR VPB sky130_fd_pr__pfet_01v8_hvt ad=0.1525 pd=1.305 as=0.14325 ps=1.33 w=1 l=0.15
X11 a_193_413# a_27_413# VPWR VPB sky130_fd_pr__pfet_01v8_hvt ad=0.0987 pd=0.89 as=0.0567 ps=0.69 w=0.42 l=0.15
X12 a_469_47# C a_369_47# VNB sky130_fd_pr__nfet_01v8 ad=0.06195 pd=0.715 as=0.0735 ps=0.77 w=0.42 l=0.15
X13 a_27_413# A_N VGND VNB sky130_fd_pr__nfet_01v8 ad=0.1092 pd=1.36 as=0.1092 ps=1.36 w=0.42 l=0.15
.ends

.subckt sky130_fd_sc_hd__a221o_2 VPWR VGND VPB VNB C1 B2 B1 A1 A2 X
X0 VPWR a_27_47# X VPB sky130_fd_pr__pfet_01v8_hvt ad=0.285 pd=2.57 as=0.135 ps=1.27 w=1 l=0.15
X1 a_465_47# A1 a_27_47# VNB sky130_fd_pr__nfet_01v8 ad=0.10725 pd=0.98 as=0.169 ps=1.82 w=0.65 l=0.15
X2 X a_27_47# VPWR VPB sky130_fd_pr__pfet_01v8_hvt ad=0.135 pd=1.27 as=0.1575 ps=1.315 w=1 l=0.15
X3 a_109_297# B1 a_193_297# VPB sky130_fd_pr__pfet_01v8_hvt ad=0.26 pd=2.52 as=0.135 ps=1.27 w=1 l=0.15
X4 a_193_297# B2 a_109_297# VPB sky130_fd_pr__pfet_01v8_hvt ad=0.135 pd=1.27 as=0.135 ps=1.27 w=1 l=0.15
X5 X a_27_47# VGND VNB sky130_fd_pr__nfet_01v8 ad=0.08775 pd=0.92 as=0.102375 ps=0.965 w=0.65 l=0.15
X6 a_205_47# B2 VGND VNB sky130_fd_pr__nfet_01v8 ad=0.06825 pd=0.86 as=0.10725 ps=0.98 w=0.65 l=0.15
X7 VPWR A2 a_193_297# VPB sky130_fd_pr__pfet_01v8_hvt ad=0.1575 pd=1.315 as=0.165 ps=1.33 w=1 l=0.15
X8 a_193_297# A1 VPWR VPB sky130_fd_pr__pfet_01v8_hvt ad=0.165 pd=1.33 as=0.26 ps=2.52 w=1 l=0.15
X9 a_27_47# B1 a_205_47# VNB sky130_fd_pr__nfet_01v8 ad=0.169 pd=1.82 as=0.06825 ps=0.86 w=0.65 l=0.15
X10 VGND a_27_47# X VNB sky130_fd_pr__nfet_01v8 ad=0.18525 pd=1.87 as=0.08775 ps=0.92 w=0.65 l=0.15
X11 a_109_297# C1 a_27_47# VPB sky130_fd_pr__pfet_01v8_hvt ad=0.135 pd=1.27 as=0.26 ps=2.52 w=1 l=0.15
X12 VGND C1 a_27_47# VNB sky130_fd_pr__nfet_01v8 ad=0.10725 pd=0.98 as=0.169 ps=1.82 w=0.65 l=0.15
X13 VGND A2 a_465_47# VNB sky130_fd_pr__nfet_01v8 ad=0.102375 pd=0.965 as=0.10725 ps=0.98 w=0.65 l=0.15
.ends

.subckt sky130_fd_sc_hd__and4_2 VNB VPB VGND VPWR X D C B A
X0 VGND a_27_47# X VNB sky130_fd_pr__nfet_01v8 ad=0.195 pd=1.9 as=0.10725 ps=0.98 w=0.65 l=0.15
X1 VGND D a_304_47# VNB sky130_fd_pr__nfet_01v8 ad=0.17515 pd=1.265 as=0.0693 ps=0.75 w=0.42 l=0.15
X2 X a_27_47# VPWR VPB sky130_fd_pr__pfet_01v8_hvt ad=0.165 pd=1.33 as=0.27995 ps=1.615 w=1 l=0.15
X3 a_198_47# B a_109_47# VNB sky130_fd_pr__nfet_01v8 ad=0.0798 pd=0.8 as=0.06195 ps=0.715 w=0.42 l=0.15
X4 a_27_47# C VPWR VPB sky130_fd_pr__pfet_01v8_hvt ad=0.0588 pd=0.7 as=0.0777 ps=0.79 w=0.42 l=0.15
X5 VPWR a_27_47# X VPB sky130_fd_pr__pfet_01v8_hvt ad=0.3 pd=2.6 as=0.165 ps=1.33 w=1 l=0.15
X6 a_304_47# C a_198_47# VNB sky130_fd_pr__nfet_01v8 ad=0.0693 pd=0.75 as=0.0798 ps=0.8 w=0.42 l=0.15
X7 a_27_47# A VPWR VPB sky130_fd_pr__pfet_01v8_hvt ad=0.07455 pd=0.775 as=0.1092 ps=1.36 w=0.42 l=0.15
X8 VPWR D a_27_47# VPB sky130_fd_pr__pfet_01v8_hvt ad=0.27995 pd=1.615 as=0.0588 ps=0.7 w=0.42 l=0.15
X9 X a_27_47# VGND VNB sky130_fd_pr__nfet_01v8 ad=0.10725 pd=0.98 as=0.17515 ps=1.265 w=0.65 l=0.15
X10 VPWR B a_27_47# VPB sky130_fd_pr__pfet_01v8_hvt ad=0.0777 pd=0.79 as=0.07455 ps=0.775 w=0.42 l=0.15
X11 a_109_47# A a_27_47# VNB sky130_fd_pr__nfet_01v8 ad=0.06195 pd=0.715 as=0.1092 ps=1.36 w=0.42 l=0.15
.ends

.subckt sky130_fd_sc_hd__a22o_2 VPWR VGND VPB VNB B2 B1 A1 A2 X
X0 VPWR a_27_297# X VPB sky130_fd_pr__pfet_01v8_hvt ad=0.27 pd=2.54 as=0.135 ps=1.27 w=1 l=0.15
X1 VGND A2 a_381_47# VNB sky130_fd_pr__nfet_01v8 ad=0.102375 pd=0.965 as=0.10725 ps=0.98 w=0.65 l=0.15
X2 X a_27_297# VGND VNB sky130_fd_pr__nfet_01v8 ad=0.08775 pd=0.92 as=0.102375 ps=0.965 w=0.65 l=0.15
X3 X a_27_297# VPWR VPB sky130_fd_pr__pfet_01v8_hvt ad=0.135 pd=1.27 as=0.1575 ps=1.315 w=1 l=0.15
X4 a_27_297# B1 a_109_47# VNB sky130_fd_pr__nfet_01v8 ad=0.169 pd=1.82 as=0.07475 ps=0.88 w=0.65 l=0.15
X5 a_27_297# B1 a_109_297# VPB sky130_fd_pr__pfet_01v8_hvt ad=0.26 pd=2.52 as=0.135 ps=1.27 w=1 l=0.15
X6 VGND a_27_297# X VNB sky130_fd_pr__nfet_01v8 ad=0.1755 pd=1.84 as=0.08775 ps=0.92 w=0.65 l=0.15
X7 a_109_297# A1 VPWR VPB sky130_fd_pr__pfet_01v8_hvt ad=0.165 pd=1.33 as=0.26 ps=2.52 w=1 l=0.15
X8 VPWR A2 a_109_297# VPB sky130_fd_pr__pfet_01v8_hvt ad=0.1575 pd=1.315 as=0.165 ps=1.33 w=1 l=0.15
X9 a_381_47# A1 a_27_297# VNB sky130_fd_pr__nfet_01v8 ad=0.10725 pd=0.98 as=0.169 ps=1.82 w=0.65 l=0.15
X10 a_109_297# B2 a_27_297# VPB sky130_fd_pr__pfet_01v8_hvt ad=0.135 pd=1.27 as=0.26 ps=2.52 w=1 l=0.15
X11 a_109_47# B2 VGND VNB sky130_fd_pr__nfet_01v8 ad=0.07475 pd=0.88 as=0.169 ps=1.82 w=0.65 l=0.15
.ends

.subckt sky130_fd_sc_hd__xor2_2 VPWR VGND X B A VPB VNB
X0 a_27_297# A VPWR VPB sky130_fd_pr__pfet_01v8_hvt ad=0.135 pd=1.27 as=0.135 ps=1.27 w=1 l=0.15
X1 a_470_47# A VGND VNB sky130_fd_pr__nfet_01v8 ad=0.08775 pd=0.92 as=0.08775 ps=0.92 w=0.65 l=0.15
X2 a_470_297# A VPWR VPB sky130_fd_pr__pfet_01v8_hvt ad=0.135 pd=1.27 as=0.135 ps=1.27 w=1 l=0.15
X3 VPWR A a_470_297# VPB sky130_fd_pr__pfet_01v8_hvt ad=0.135 pd=1.27 as=0.26 ps=2.52 w=1 l=0.15
X4 a_112_47# B VGND VNB sky130_fd_pr__nfet_01v8 ad=0.08775 pd=0.92 as=0.08775 ps=0.92 w=0.65 l=0.15
X5 a_470_47# B X VNB sky130_fd_pr__nfet_01v8 ad=0.169 pd=1.82 as=0.105625 ps=0.975 w=0.65 l=0.15
X6 VGND A a_112_47# VNB sky130_fd_pr__nfet_01v8 ad=0.08775 pd=0.92 as=0.08775 ps=0.92 w=0.65 l=0.15
X7 a_112_47# A VGND VNB sky130_fd_pr__nfet_01v8 ad=0.08775 pd=0.92 as=0.17875 ps=1.85 w=0.65 l=0.15
X8 VGND B a_112_47# VNB sky130_fd_pr__nfet_01v8 ad=0.169 pd=1.82 as=0.08775 ps=0.92 w=0.65 l=0.15
X9 VPWR A a_27_297# VPB sky130_fd_pr__pfet_01v8_hvt ad=0.135 pd=1.27 as=0.275 ps=2.55 w=1 l=0.15
X10 a_470_297# B VPWR VPB sky130_fd_pr__pfet_01v8_hvt ad=0.26 pd=2.52 as=0.1625 ps=1.325 w=1 l=0.15
X11 X a_112_47# VGND VNB sky130_fd_pr__nfet_01v8 ad=0.08775 pd=0.92 as=0.169 ps=1.82 w=0.65 l=0.15
X12 VPWR B a_470_297# VPB sky130_fd_pr__pfet_01v8_hvt ad=0.1625 pd=1.325 as=0.135 ps=1.27 w=1 l=0.15
X13 VGND a_112_47# X VNB sky130_fd_pr__nfet_01v8 ad=0.169 pd=1.82 as=0.08775 ps=0.92 w=0.65 l=0.15
X14 VGND A a_470_47# VNB sky130_fd_pr__nfet_01v8 ad=0.08775 pd=0.92 as=0.169 ps=1.82 w=0.65 l=0.15
X15 a_27_297# B a_112_47# VPB sky130_fd_pr__pfet_01v8_hvt ad=0.26 pd=2.52 as=0.135 ps=1.27 w=1 l=0.15
X16 X a_112_47# a_470_297# VPB sky130_fd_pr__pfet_01v8_hvt ad=0.135 pd=1.27 as=0.26 ps=2.52 w=1 l=0.15
X17 a_470_297# a_112_47# X VPB sky130_fd_pr__pfet_01v8_hvt ad=0.28 pd=2.56 as=0.135 ps=1.27 w=1 l=0.15
X18 X B a_470_47# VNB sky130_fd_pr__nfet_01v8 ad=0.105625 pd=0.975 as=0.08775 ps=0.92 w=0.65 l=0.15
X19 a_112_47# B a_27_297# VPB sky130_fd_pr__pfet_01v8_hvt ad=0.135 pd=1.27 as=0.135 ps=1.27 w=1 l=0.15
.ends

.subckt sky130_fd_sc_hd__xnor2_2 VGND VPWR Y A B VPB VNB
X0 a_27_297# B VPWR VPB sky130_fd_pr__pfet_01v8_hvt ad=0.135 pd=1.27 as=0.135 ps=1.27 w=1 l=0.15
X1 a_560_47# A VGND VNB sky130_fd_pr__nfet_01v8 ad=0.08775 pd=0.92 as=0.182 ps=1.86 w=0.65 l=0.15
X2 VGND B a_560_47# VNB sky130_fd_pr__nfet_01v8 ad=0.169 pd=1.82 as=0.099125 ps=0.955 w=0.65 l=0.15
X3 Y B a_474_297# VPB sky130_fd_pr__pfet_01v8_hvt ad=0.1525 pd=1.305 as=0.135 ps=1.27 w=1 l=0.15
X4 VGND A a_27_47# VNB sky130_fd_pr__nfet_01v8 ad=0.08775 pd=0.92 as=0.08775 ps=0.92 w=0.65 l=0.15
X5 Y a_27_297# a_560_47# VNB sky130_fd_pr__nfet_01v8 ad=0.169 pd=1.82 as=0.08775 ps=0.92 w=0.65 l=0.15
X6 a_474_297# B Y VPB sky130_fd_pr__pfet_01v8_hvt ad=0.26 pd=2.52 as=0.1525 ps=1.305 w=1 l=0.15
X7 VGND A a_560_47# VNB sky130_fd_pr__nfet_01v8 ad=0.08775 pd=0.92 as=0.08775 ps=0.92 w=0.65 l=0.15
X8 a_27_47# B a_27_297# VNB sky130_fd_pr__nfet_01v8 ad=0.08775 pd=0.92 as=0.08775 ps=0.92 w=0.65 l=0.15
X9 a_27_297# B a_27_47# VNB sky130_fd_pr__nfet_01v8 ad=0.08775 pd=0.92 as=0.17875 ps=1.85 w=0.65 l=0.15
X10 a_27_47# A VGND VNB sky130_fd_pr__nfet_01v8 ad=0.182 pd=1.86 as=0.08775 ps=0.92 w=0.65 l=0.15
X11 VPWR B a_27_297# VPB sky130_fd_pr__pfet_01v8_hvt ad=0.135 pd=1.27 as=0.275 ps=2.55 w=1 l=0.15
X12 a_474_297# A VPWR VPB sky130_fd_pr__pfet_01v8_hvt ad=0.135 pd=1.27 as=0.135 ps=1.27 w=1 l=0.15
X13 a_560_47# a_27_297# Y VNB sky130_fd_pr__nfet_01v8 ad=0.08775 pd=0.92 as=0.169 ps=1.82 w=0.65 l=0.15
X14 VPWR A a_474_297# VPB sky130_fd_pr__pfet_01v8_hvt ad=0.135 pd=1.27 as=0.28 ps=2.56 w=1 l=0.15
X15 Y a_27_297# VPWR VPB sky130_fd_pr__pfet_01v8_hvt ad=0.135 pd=1.27 as=0.26 ps=2.52 w=1 l=0.15
X16 VPWR a_27_297# Y VPB sky130_fd_pr__pfet_01v8_hvt ad=0.28 pd=2.56 as=0.135 ps=1.27 w=1 l=0.15
X17 a_560_47# B VGND VNB sky130_fd_pr__nfet_01v8 ad=0.099125 pd=0.955 as=0.08775 ps=0.92 w=0.65 l=0.15
X18 a_27_297# A VPWR VPB sky130_fd_pr__pfet_01v8_hvt ad=0.28 pd=2.56 as=0.135 ps=1.27 w=1 l=0.15
X19 VPWR A a_27_297# VPB sky130_fd_pr__pfet_01v8_hvt ad=0.135 pd=1.27 as=0.135 ps=1.27 w=1 l=0.15
.ends

.subckt sky130_fd_sc_hd__or4b_2 VPWR VGND VPB VNB C D_N X A B
X0 a_176_21# C VGND VNB sky130_fd_pr__nfet_01v8 ad=0.0567 pd=0.69 as=0.0567 ps=0.69 w=0.42 l=0.15
X1 VGND D_N a_27_53# VNB sky130_fd_pr__nfet_01v8 ad=0.10025 pd=0.985 as=0.1092 ps=1.36 w=0.42 l=0.15
X2 VGND a_176_21# X VNB sky130_fd_pr__nfet_01v8 ad=0.10025 pd=0.985 as=0.08775 ps=0.92 w=0.65 l=0.15
X3 X a_176_21# VGND VNB sky130_fd_pr__nfet_01v8 ad=0.08775 pd=0.92 as=0.10025 ps=0.985 w=0.65 l=0.15
X4 VPWR a_176_21# X VPB sky130_fd_pr__pfet_01v8_hvt ad=0.16835 pd=1.495 as=0.135 ps=1.27 w=1 l=0.15
X5 a_555_297# C a_483_297# VPB sky130_fd_pr__pfet_01v8_hvt ad=0.0693 pd=0.75 as=0.0441 ps=0.63 w=0.42 l=0.15
X6 a_176_21# a_27_53# a_555_297# VPB sky130_fd_pr__pfet_01v8_hvt ad=0.1092 pd=1.36 as=0.0693 ps=0.75 w=0.42 l=0.15
X7 X a_176_21# VPWR VPB sky130_fd_pr__pfet_01v8_hvt ad=0.135 pd=1.27 as=0.1693 ps=1.5 w=1 l=0.15
X8 a_387_297# A VPWR VPB sky130_fd_pr__pfet_01v8_hvt ad=0.0693 pd=0.75 as=0.16835 ps=1.495 w=0.42 l=0.15
X9 a_483_297# B a_387_297# VPB sky130_fd_pr__pfet_01v8_hvt ad=0.0441 pd=0.63 as=0.0693 ps=0.75 w=0.42 l=0.15
X10 VGND B a_176_21# VNB sky130_fd_pr__nfet_01v8 ad=0.0567 pd=0.69 as=0.0693 ps=0.75 w=0.42 l=0.15
X11 VGND a_27_53# a_176_21# VNB sky130_fd_pr__nfet_01v8 ad=0.1092 pd=1.36 as=0.0567 ps=0.69 w=0.42 l=0.15
X12 VPWR D_N a_27_53# VPB sky130_fd_pr__pfet_01v8_hvt ad=0.1693 pd=1.5 as=0.1092 ps=1.36 w=0.42 l=0.15
X13 a_176_21# A VGND VNB sky130_fd_pr__nfet_01v8 ad=0.0693 pd=0.75 as=0.10025 ps=0.985 w=0.42 l=0.15
.ends

.subckt sky130_fd_sc_hd__or4_2 VPWR VGND VPB VNB B D C A X
X0 a_27_297# B VGND VNB sky130_fd_pr__nfet_01v8 ad=0.0567 pd=0.69 as=0.0567 ps=0.69 w=0.42 l=0.15
X1 a_27_297# D VGND VNB sky130_fd_pr__nfet_01v8 ad=0.0693 pd=0.75 as=0.1092 ps=1.36 w=0.42 l=0.15
X2 a_277_297# B a_205_297# VPB sky130_fd_pr__pfet_01v8_hvt ad=0.0693 pd=0.75 as=0.0441 ps=0.63 w=0.42 l=0.15
X3 VPWR A a_277_297# VPB sky130_fd_pr__pfet_01v8_hvt ad=0.14825 pd=1.34 as=0.0693 ps=0.75 w=0.42 l=0.15
X4 X a_27_297# VGND VNB sky130_fd_pr__nfet_01v8 ad=0.08775 pd=0.92 as=0.101875 ps=0.99 w=0.65 l=0.15
X5 a_205_297# C a_109_297# VPB sky130_fd_pr__pfet_01v8_hvt ad=0.0441 pd=0.63 as=0.0693 ps=0.75 w=0.42 l=0.15
X6 VPWR a_27_297# X VPB sky130_fd_pr__pfet_01v8_hvt ad=0.305 pd=2.61 as=0.135 ps=1.27 w=1 l=0.15
X7 VGND a_27_297# X VNB sky130_fd_pr__nfet_01v8 ad=0.19825 pd=1.91 as=0.08775 ps=0.92 w=0.65 l=0.15
X8 X a_27_297# VPWR VPB sky130_fd_pr__pfet_01v8_hvt ad=0.135 pd=1.27 as=0.14825 ps=1.34 w=1 l=0.15
X9 VGND C a_27_297# VNB sky130_fd_pr__nfet_01v8 ad=0.0567 pd=0.69 as=0.0693 ps=0.75 w=0.42 l=0.15
X10 a_109_297# D a_27_297# VPB sky130_fd_pr__pfet_01v8_hvt ad=0.0693 pd=0.75 as=0.1092 ps=1.36 w=0.42 l=0.15
X11 VGND A a_27_297# VNB sky130_fd_pr__nfet_01v8 ad=0.101875 pd=0.99 as=0.0567 ps=0.69 w=0.42 l=0.15
.ends

.subckt sky130_fd_sc_hd__and4bb_2 VNB VPB VGND VPWR A_N X C D B_N
X0 a_174_21# C VPWR VPB sky130_fd_pr__pfet_01v8_hvt ad=0.0567 pd=0.69 as=0.0588 ps=0.7 w=0.42 l=0.15
X1 a_174_21# a_27_47# VPWR VPB sky130_fd_pr__pfet_01v8_hvt ad=0.0672 pd=0.74 as=0.33075 ps=1.705 w=0.42 l=0.15
X2 a_476_47# a_27_47# a_174_21# VNB sky130_fd_pr__nfet_01v8 ad=0.0441 pd=0.63 as=0.1092 ps=1.36 w=0.42 l=0.15
X3 VPWR a_174_21# X VPB sky130_fd_pr__pfet_01v8_hvt ad=0.33075 pd=1.705 as=0.135 ps=1.27 w=1 l=0.15
X4 X a_174_21# VPWR VPB sky130_fd_pr__pfet_01v8_hvt ad=0.135 pd=1.27 as=0.14075 ps=1.325 w=1 l=0.15
X5 a_548_47# a_505_280# a_476_47# VNB sky130_fd_pr__nfet_01v8 ad=0.06405 pd=0.725 as=0.0441 ps=0.63 w=0.42 l=0.15
X6 VPWR A_N a_27_47# VPB sky130_fd_pr__pfet_01v8_hvt ad=0.14075 pd=1.325 as=0.1092 ps=1.36 w=0.42 l=0.15
X7 X a_174_21# VGND VNB sky130_fd_pr__nfet_01v8 ad=0.08775 pd=0.92 as=0.097 ps=0.975 w=0.65 l=0.15
X8 VPWR D a_174_21# VPB sky130_fd_pr__pfet_01v8_hvt ad=0.0924 pd=0.86 as=0.0567 ps=0.69 w=0.42 l=0.15
X9 VGND D a_639_47# VNB sky130_fd_pr__nfet_01v8 ad=0.0924 pd=0.86 as=0.0567 ps=0.69 w=0.42 l=0.15
X10 VPWR a_505_280# a_174_21# VPB sky130_fd_pr__pfet_01v8_hvt ad=0.0588 pd=0.7 as=0.0672 ps=0.74 w=0.42 l=0.15
X11 a_505_280# B_N VPWR VPB sky130_fd_pr__pfet_01v8_hvt ad=0.1092 pd=1.36 as=0.0924 ps=0.86 w=0.42 l=0.15
X12 VGND a_174_21# X VNB sky130_fd_pr__nfet_01v8 ad=0.169 pd=1.82 as=0.08775 ps=0.92 w=0.65 l=0.15
X13 a_505_280# B_N VGND VNB sky130_fd_pr__nfet_01v8 ad=0.1092 pd=1.36 as=0.0924 ps=0.86 w=0.42 l=0.15
X14 a_639_47# C a_548_47# VNB sky130_fd_pr__nfet_01v8 ad=0.0567 pd=0.69 as=0.06405 ps=0.725 w=0.42 l=0.15
X15 VGND A_N a_27_47# VNB sky130_fd_pr__nfet_01v8 ad=0.097 pd=0.975 as=0.1092 ps=1.36 w=0.42 l=0.15
.ends

.subckt sky130_fd_sc_hd__or2_2 VPWR VGND VPB VNB X A B
X0 a_121_297# B a_39_297# VPB sky130_fd_pr__pfet_01v8_hvt ad=0.0441 pd=0.63 as=0.1092 ps=1.36 w=0.42 l=0.15
X1 X a_39_297# VGND VNB sky130_fd_pr__nfet_01v8 ad=0.08775 pd=0.92 as=0.10675 ps=1.005 w=0.65 l=0.15
X2 VPWR a_39_297# X VPB sky130_fd_pr__pfet_01v8_hvt ad=0.26 pd=2.52 as=0.135 ps=1.27 w=1 l=0.15
X3 X a_39_297# VPWR VPB sky130_fd_pr__pfet_01v8_hvt ad=0.135 pd=1.27 as=0.15575 ps=1.355 w=1 l=0.15
X4 VGND a_39_297# X VNB sky130_fd_pr__nfet_01v8 ad=0.169 pd=1.82 as=0.08775 ps=0.92 w=0.65 l=0.15
X5 VPWR A a_121_297# VPB sky130_fd_pr__pfet_01v8_hvt ad=0.15575 pd=1.355 as=0.0441 ps=0.63 w=0.42 l=0.15
X6 VGND A a_39_297# VNB sky130_fd_pr__nfet_01v8 ad=0.10675 pd=1.005 as=0.0567 ps=0.69 w=0.42 l=0.15
X7 a_39_297# B VGND VNB sky130_fd_pr__nfet_01v8 ad=0.0567 pd=0.69 as=0.1092 ps=1.36 w=0.42 l=0.15
.ends

.subckt sky130_fd_sc_hd__o21a_2 VNB VPB VGND VPWR X B1 A2 A1
X0 VPWR A1 a_470_297# VPB sky130_fd_pr__pfet_01v8_hvt ad=0.265 pd=2.53 as=0.16 ps=1.32 w=1 l=0.15
X1 a_79_21# B1 VPWR VPB sky130_fd_pr__pfet_01v8_hvt ad=0.14 pd=1.28 as=0.4 ps=1.8 w=1 l=0.15
X2 VGND a_79_21# X VNB sky130_fd_pr__nfet_01v8 ad=0.17225 pd=1.83 as=0.089375 ps=0.925 w=0.65 l=0.15
X3 VGND A2 a_384_47# VNB sky130_fd_pr__nfet_01v8 ad=0.104 pd=0.97 as=0.091 ps=0.93 w=0.65 l=0.15
X4 a_470_297# A2 a_79_21# VPB sky130_fd_pr__pfet_01v8_hvt ad=0.16 pd=1.32 as=0.14 ps=1.28 w=1 l=0.15
X5 VPWR a_79_21# X VPB sky130_fd_pr__pfet_01v8_hvt ad=0.4 pd=1.8 as=0.1375 ps=1.275 w=1 l=0.15
X6 a_384_47# B1 a_79_21# VNB sky130_fd_pr__nfet_01v8 ad=0.091 pd=0.93 as=0.17225 ps=1.83 w=0.65 l=0.15
X7 a_384_47# A1 VGND VNB sky130_fd_pr__nfet_01v8 ad=0.17225 pd=1.83 as=0.104 ps=0.97 w=0.65 l=0.15
X8 X a_79_21# VPWR VPB sky130_fd_pr__pfet_01v8_hvt ad=0.1375 pd=1.275 as=0.26 ps=2.52 w=1 l=0.15
X9 X a_79_21# VGND VNB sky130_fd_pr__nfet_01v8 ad=0.089375 pd=0.925 as=0.169 ps=1.82 w=0.65 l=0.15
.ends

.subckt sky130_fd_sc_hd__or3_2 VGND VPWR VPB VNB B C A X
X0 VPWR a_30_53# X VPB sky130_fd_pr__pfet_01v8_hvt ad=0.315 pd=2.63 as=0.135 ps=1.27 w=1 l=0.15
X1 VGND a_30_53# X VNB sky130_fd_pr__nfet_01v8 ad=0.18525 pd=1.87 as=0.08775 ps=0.92 w=0.65 l=0.15