** sch_path: /home/adair/Documents/CAD/xschem_library_adair/schematics/tb_cm_ota_working_v2_extracted_transient.sch
**.subckt tb_cm_ota_working_v2_extracted_transient
V1 avdd_1v8 GND 1.8
C1 out GND 50f m=1
V3 inn GND DC 0.9 AC SIN(0.9 0.1 1Meg)
V4 inp GND 0.9
X1 avdd_1v8 out inp inn iref GND cm_ota
I1 GND iref 24u
**** begin user architecture code

** opencircuitdesign pdks isntsall
.lib /opt/pdk/open_pdks/sky130/sky130A/libs.tech/ngspice/sky130.lib.spice tt


.temp 27
.option savecurrents
.save all
.control
	op
	write tb_cm_ota_working_v2_extracted.raw
	tran 0.5ns 10us
	plot v(inn) v(out)
.endc


**** end user architecture code
**.ends

* expanding   symbol:  cm_ota.sym # of pins=6
** sym_path: /home/adair/Documents/CAD/xschem_library_adair/schematics/cm_ota.sym
** sch_path: /home/adair/Documents/CAD/xschem_library_adair/schematics/cm_ota.sch
.subckt cm_ota VDD VOUT VINP VINN ID VSS

X0 DP_NMOS_B_6171529_X2_Y2_1725189357_0/a_746_1638# VINP m1_2892_6188# VSS sky130_fd_pr__nfet_01v8 ad=0.147 pd=1.33 as=0.147 ps=1.33 w=1.05 l=0.15
X1 m1_2290_6188# VINN DP_NMOS_B_6171529_X2_Y2_1725189357_0/a_1262_1638# VSS sky130_fd_pr__nfet_01v8 ad=0.147 pd=1.33 as=0.147 ps=1.33 w=1.05 l=0.15
X2 li_749_5779# VINN DP_NMOS_B_6171529_X2_Y2_1725189357_0/a_402_1638# VSS sky130_fd_pr__nfet_01v8 ad=0.147 pd=1.33 as=0.147 ps=1.33 w=1.05 l=0.15
X3 DP_NMOS_B_6171529_X2_Y2_1725189357_0/a_230_1638# VINN li_749_5779# VSS sky130_fd_pr__nfet_01v8 ad=0.147 pd=1.33 as=0.278 ps=2.63 w=1.05 l=0.15
X4 DP_NMOS_B_6171529_X2_Y2_1725189357_0/a_1090_462# VINN m1_2290_6188# VSS sky130_fd_pr__nfet_01v8 ad=0.147 pd=1.33 as=0.147 ps=1.33 w=1.05 l=0.15
X5 DP_NMOS_B_6171529_X2_Y2_1725189357_0/a_574_1638# VINP li_749_5779# VSS sky130_fd_pr__nfet_01v8 ad=0.147 pd=1.33 as=0.147 ps=1.33 w=1.05 l=0.15
X6 li_749_5779# VINP DP_NMOS_B_6171529_X2_Y2_1725189357_0/a_746_1638# VSS sky130_fd_pr__nfet_01v8 ad=0.147 pd=1.33 as=0.147 ps=1.33 w=1.05 l=0.15
X7 DP_NMOS_B_6171529_X2_Y2_1725189357_0/a_1434_1638# VINN m1_2290_6188# VSS sky130_fd_pr__nfet_01v8 ad=0.147 pd=1.33 as=0.147 ps=1.33 w=1.05 l=0.15
X8 DP_NMOS_B_6171529_X2_Y2_1725189357_0/a_1434_462# VINP m1_2892_6188# VSS sky130_fd_pr__nfet_01v8 ad=0.147 pd=1.33 as=0.147 ps=1.33 w=1.05 l=0.15
X9 li_749_5779# VINP DP_NMOS_B_6171529_X2_Y2_1725189357_0/a_1434_462# VSS sky130_fd_pr__nfet_01v8 ad=0.278 pd=2.63 as=0.147 ps=1.33 w=1.05 l=0.15
X10 m1_2290_6188# VINN DP_NMOS_B_6171529_X2_Y2_1725189357_0/a_230_1638# VSS sky130_fd_pr__nfet_01v8 ad=0.147 pd=1.33 as=0.147 ps=1.33 w=1.05 l=0.15
X11 li_749_5779# VINP DP_NMOS_B_6171529_X2_Y2_1725189357_0/a_1090_1638# VSS sky130_fd_pr__nfet_01v8 ad=0.147 pd=1.33 as=0.147 ps=1.33 w=1.05 l=0.15
X12 DP_NMOS_B_6171529_X2_Y2_1725189357_0/a_918_1638# VINP li_749_5779# VSS sky130_fd_pr__nfet_01v8 ad=0.147 pd=1.33 as=0.147 ps=1.33 w=1.05 l=0.15
X13 DP_NMOS_B_6171529_X2_Y2_1725189357_0/a_402_462# VINP m1_2892_6188# VSS sky130_fd_pr__nfet_01v8 ad=0.147 pd=1.33 as=0.147 ps=1.33 w=1.05 l=0.15
X14 m1_2892_6188# VINP DP_NMOS_B_6171529_X2_Y2_1725189357_0/a_574_1638# VSS sky130_fd_pr__nfet_01v8 ad=0.147 pd=1.33 as=0.147 ps=1.33 w=1.05 l=0.15
X15 DP_NMOS_B_6171529_X2_Y2_1725189357_0/a_1262_1638# VINN li_749_5779# VSS sky130_fd_pr__nfet_01v8 ad=0.147 pd=1.33 as=0.147 ps=1.33 w=1.05 l=0.15
X16 DP_NMOS_B_6171529_X2_Y2_1725189357_0/a_402_1638# VINN m1_2290_6188# VSS sky130_fd_pr__nfet_01v8 ad=0.147 pd=1.33 as=0.147 ps=1.33 w=1.05 l=0.15
X17 DP_NMOS_B_6171529_X2_Y2_1725189357_0/a_746_462# VINN m1_2290_6188# VSS sky130_fd_pr__nfet_01v8 ad=0.147 pd=1.33 as=0.147 ps=1.33 w=1.05 l=0.15
X18 m1_2892_6188# VINP DP_NMOS_B_6171529_X2_Y2_1725189357_0/a_918_1638# VSS sky130_fd_pr__nfet_01v8 ad=0.147 pd=1.33 as=0.147 ps=1.33 w=1.05 l=0.15
X19 DP_NMOS_B_6171529_X2_Y2_1725189357_0/a_1090_1638# VINP m1_2892_6188# VSS sky130_fd_pr__nfet_01v8 ad=0.147 pd=1.33 as=0.147 ps=1.33 w=1.05 l=0.15
X20 li_749_5779# VINN DP_NMOS_B_6171529_X2_Y2_1725189357_0/a_1090_462# VSS sky130_fd_pr__nfet_01v8 ad=0.147 pd=1.33 as=0.147 ps=1.33 w=1.05 l=0.15
X21 li_749_5779# VINN DP_NMOS_B_6171529_X2_Y2_1725189357_0/a_1434_1638# VSS sky130_fd_pr__nfet_01v8 ad=0.278 pd=2.63 as=0.147 ps=1.33 w=1.05 l=0.15
X22 li_749_5779# VINP DP_NMOS_B_6171529_X2_Y2_1725189357_0/a_402_462# VSS sky130_fd_pr__nfet_01v8 ad=0.147 pd=1.33 as=0.147 ps=1.33 w=1.05 l=0.15
X23 li_749_5779# VINN DP_NMOS_B_6171529_X2_Y2_1725189357_0/a_746_462# VSS sky130_fd_pr__nfet_01v8 ad=0.147 pd=1.33 as=0.147 ps=1.33 w=1.05 l=0.15
X24 DP_NMOS_B_6171529_X2_Y2_1725189357_0/a_918_462# VINN li_749_5779# VSS sky130_fd_pr__nfet_01v8 ad=0.147 pd=1.33 as=0.147 ps=1.33 w=1.05 l=0.15
X25 DP_NMOS_B_6171529_X2_Y2_1725189357_0/a_1262_462# VINP li_749_5779# VSS sky130_fd_pr__nfet_01v8 ad=0.147 pd=1.33 as=0.147 ps=1.33 w=1.05 l=0.15
X26 DP_NMOS_B_6171529_X2_Y2_1725189357_0/a_574_462# VINN li_749_5779# VSS sky130_fd_pr__nfet_01v8 ad=0.147 pd=1.33 as=0.147 ps=1.33 w=1.05 l=0.15
X27 m1_2290_6188# VINN DP_NMOS_B_6171529_X2_Y2_1725189357_0/a_918_462# VSS sky130_fd_pr__nfet_01v8 ad=0.147 pd=1.33 as=0.147 ps=1.33 w=1.05 l=0.15
X28 m1_2892_6188# VINP DP_NMOS_B_6171529_X2_Y2_1725189357_0/a_1262_462# VSS sky130_fd_pr__nfet_01v8 ad=0.147 pd=1.33 as=0.147 ps=1.33 w=1.05 l=0.15
X29 DP_NMOS_B_6171529_X2_Y2_1725189357_0/a_230_462# VINP li_749_5779# VSS sky130_fd_pr__nfet_01v8 ad=0.147 pd=1.33 as=0.278 ps=2.63 w=1.05 l=0.15
X30 m1_2892_6188# VINP DP_NMOS_B_6171529_X2_Y2_1725189357_0/a_230_462# VSS sky130_fd_pr__nfet_01v8 ad=0.147 pd=1.33 as=0.147 ps=1.33 w=1.05 l=0.15
X31 m1_2290_6188# VINN DP_NMOS_B_6171529_X2_Y2_1725189357_0/a_574_462# VSS sky130_fd_pr__nfet_01v8 ad=0.147 pd=1.33 as=0.147 ps=1.33 w=1.05 l=0.15
X32 SCM_NMOS_5643887_X2_Y1_1725189358_0/a_1090_462# ID li_749_5779# VSS sky130_fd_pr__nfet_01v8 ad=0.147 pd=1.33 as=0.147 ps=1.33 w=1.05 l=0.15
X33 SCM_NMOS_5643887_X2_Y1_1725189358_0/a_1434_462# ID ID VSS sky130_fd_pr__nfet_01v8 ad=0.147 pd=1.33 as=0.147 ps=1.33 w=1.05 l=0.15
X34 VSS ID SCM_NMOS_5643887_X2_Y1_1725189358_0/a_1434_462# VSS sky130_fd_pr__nfet_01v8 ad=0.278 pd=2.63 as=0.147 ps=1.33 w=1.05 l=0.15
X35 SCM_NMOS_5643887_X2_Y1_1725189358_0/a_402_462# ID ID VSS sky130_fd_pr__nfet_01v8 ad=0.147 pd=1.33 as=0.147 ps=1.33 w=1.05 l=0.15
X36 SCM_NMOS_5643887_X2_Y1_1725189358_0/a_746_462# ID li_749_5779# VSS sky130_fd_pr__nfet_01v8 ad=0.147 pd=1.33 as=0.147 ps=1.33 w=1.05 l=0.15
X37 VSS ID SCM_NMOS_5643887_X2_Y1_1725189358_0/a_1090_462# VSS sky130_fd_pr__nfet_01v8 ad=0.147 pd=1.33 as=0.147 ps=1.33 w=1.05 l=0.15
X38 VSS ID SCM_NMOS_5643887_X2_Y1_1725189358_0/a_402_462# VSS sky130_fd_pr__nfet_01v8 ad=0.147 pd=1.33 as=0.147 ps=1.33 w=1.05 l=0.15
X39 VSS ID SCM_NMOS_5643887_X2_Y1_1725189358_0/a_746_462# VSS sky130_fd_pr__nfet_01v8 ad=0.147 pd=1.33 as=0.147 ps=1.33 w=1.05 l=0.15
X40 SCM_NMOS_5643887_X2_Y1_1725189358_0/a_918_462# ID VSS VSS sky130_fd_pr__nfet_01v8 ad=0.147 pd=1.33 as=0.147 ps=1.33 w=1.05 l=0.15
X41 SCM_NMOS_5643887_X2_Y1_1725189358_0/a_1262_462# ID VSS VSS sky130_fd_pr__nfet_01v8 ad=0.147 pd=1.33 as=0.147 ps=1.33 w=1.05 l=0.15
X42 SCM_NMOS_5643887_X2_Y1_1725189358_0/a_574_462# ID VSS VSS sky130_fd_pr__nfet_01v8 ad=0.147 pd=1.33 as=0.147 ps=1.33 w=1.05 l=0.15
X43 li_749_5779# ID SCM_NMOS_5643887_X2_Y1_1725189358_0/a_918_462# VSS sky130_fd_pr__nfet_01v8 ad=0.147 pd=1.33 as=0.147 ps=1.33 w=1.05 l=0.15
X44 ID ID SCM_NMOS_5643887_X2_Y1_1725189358_0/a_1262_462# VSS sky130_fd_pr__nfet_01v8 ad=0.147 pd=1.33 as=0.147 ps=1.33 w=1.05 l=0.15
X45 SCM_NMOS_5643887_X2_Y1_1725189358_0/a_230_462# ID VSS VSS sky130_fd_pr__nfet_01v8 ad=0.147 pd=1.33 as=0.278 ps=2.63 w=1.05 l=0.15
X46 ID ID SCM_NMOS_5643887_X2_Y1_1725189358_0/a_230_462# VSS sky130_fd_pr__nfet_01v8 ad=0.147 pd=1.33 as=0.147 ps=1.33 w=1.05 l=0.15
X47 li_749_5779# ID SCM_NMOS_5643887_X2_Y1_1725189358_0/a_574_462# VSS sky130_fd_pr__nfet_01v8 ad=0.147 pd=1.33 as=0.147 ps=1.33 w=1.05 l=0.15
X48 SCM_PMOS_85912433_X1_Y5_1725189360_0/a_402_1638# m1_2290_6188# VOUT VDD sky130_fd_pr__pfet_01v8 ad=0.147 pd=1.33 as=0.147 ps=1.33 w=1.05 l=0.15
X49 m1_2290_6188# m1_2290_6188# SCM_PMOS_85912433_X1_Y5_1725189360_0/a_574_1638# VDD sky130_fd_pr__pfet_01v8 ad=0.147 pd=1.33 as=0.147 ps=1.33 w=1.05 l=0.15
X50 SCM_PMOS_85912433_X1_Y5_1725189360_0/a_746_462# m1_2290_6188# VOUT VDD sky130_fd_pr__pfet_01v8 ad=0.147 pd=1.33 as=0.147 ps=1.33 w=1.05 l=0.15
X51 SCM_PMOS_85912433_X1_Y5_1725189360_0/a_746_3990# m1_2290_6188# m1_2290_6188# VDD sky130_fd_pr__pfet_01v8 ad=0.147 pd=1.33 as=0.147 ps=1.33 w=1.05 l=0.15
X52 VDD m1_2290_6188# SCM_PMOS_85912433_X1_Y5_1725189360_0/a_402_462# VDD sky130_fd_pr__pfet_01v8 ad=0.147 pd=1.33 as=0.147 ps=1.33 w=1.05 l=0.15
X53 VDD m1_2290_6188# SCM_PMOS_85912433_X1_Y5_1725189360_0/a_746_462# VDD sky130_fd_pr__pfet_01v8 ad=0.278 pd=2.63 as=0.147 ps=1.33 w=1.05 l=0.15
X54 VDD m1_2290_6188# SCM_PMOS_85912433_X1_Y5_1725189360_0/a_402_3990# VDD sky130_fd_pr__pfet_01v8 ad=0.147 pd=1.33 as=0.147 ps=1.33 w=1.05 l=0.15
X55 SCM_PMOS_85912433_X1_Y5_1725189360_0/a_230_3990# m1_2290_6188# VDD VDD sky130_fd_pr__pfet_01v8 ad=0.147 pd=1.33 as=0.278 ps=2.63 w=1.05 l=0.15
X56 VDD m1_2290_6188# SCM_PMOS_85912433_X1_Y5_1725189360_0/a_746_3990# VDD sky130_fd_pr__pfet_01v8 ad=0.278 pd=2.63 as=0.147 ps=1.33 w=1.05 l=0.15
X57 VOUT m1_2290_6188# SCM_PMOS_85912433_X1_Y5_1725189360_0/a_230_3990# VDD sky130_fd_pr__pfet_01v8 ad=0.147 pd=1.33 as=0.147 ps=1.33 w=1.05 l=0.15
X58 SCM_PMOS_85912433_X1_Y5_1725189360_0/a_574_3990# m1_2290_6188# VDD VDD sky130_fd_pr__pfet_01v8 ad=0.147 pd=1.33 as=0.147 ps=1.33 w=1.05 l=0.15
X59 SCM_PMOS_85912433_X1_Y5_1725189360_0/a_746_2814# m1_2290_6188# VOUT VDD sky130_fd_pr__pfet_01v8 ad=0.147 pd=1.33 as=0.147 ps=1.33 w=1.05 l=0.15
X60 m1_2290_6188# m1_2290_6188# SCM_PMOS_85912433_X1_Y5_1725189360_0/a_574_3990# VDD sky130_fd_pr__pfet_01v8 ad=0.147 pd=1.33 as=0.147 ps=1.33 w=1.05 l=0.15
X61 VDD m1_2290_6188# SCM_PMOS_85912433_X1_Y5_1725189360_0/a_402_2814# VDD sky130_fd_pr__pfet_01v8 ad=0.147 pd=1.33 as=0.147 ps=1.33 w=1.05 l=0.15
X62 SCM_PMOS_85912433_X1_Y5_1725189360_0/a_402_3990# m1_2290_6188# VOUT VDD sky130_fd_pr__pfet_01v8 ad=0.147 pd=1.33 as=0.147 ps=1.33 w=1.05 l=0.15
X63 SCM_PMOS_85912433_X1_Y5_1725189360_0/a_230_2814# m1_2290_6188# VDD VDD sky130_fd_pr__pfet_01v8 ad=0.147 pd=1.33 as=0.278 ps=2.63 w=1.05 l=0.15
X64 VDD m1_2290_6188# SCM_PMOS_85912433_X1_Y5_1725189360_0/a_746_2814# VDD sky130_fd_pr__pfet_01v8 ad=0.278 pd=2.63 as=0.147 ps=1.33 w=1.05 l=0.15
X65 SCM_PMOS_85912433_X1_Y5_1725189360_0/a_574_462# m1_2290_6188# VDD VDD sky130_fd_pr__pfet_01v8 ad=0.147 pd=1.33 as=0.147 ps=1.33 w=1.05 l=0.15
X66 m1_2290_6188# m1_2290_6188# SCM_PMOS_85912433_X1_Y5_1725189360_0/a_230_2814# VDD sky130_fd_pr__pfet_01v8 ad=0.147 pd=1.33 as=0.147 ps=1.33 w=1.05 l=0.15
X67 SCM_PMOS_85912433_X1_Y5_1725189360_0/a_574_2814# m1_2290_6188# VDD VDD sky130_fd_pr__pfet_01v8 ad=0.147 pd=1.33 as=0.147 ps=1.33 w=1.05 l=0.15
X68 VOUT m1_2290_6188# SCM_PMOS_85912433_X1_Y5_1725189360_0/a_574_2814# VDD sky130_fd_pr__pfet_01v8 ad=0.147 pd=1.33 as=0.147 ps=1.33 w=1.05 l=0.15
X69 VDD m1_2290_6188# SCM_PMOS_85912433_X1_Y5_1725189360_0/a_402_5166# VDD sky130_fd_pr__pfet_01v8 ad=0.147 pd=1.33 as=0.147 ps=1.33 w=1.05 l=0.15
X70 SCM_PMOS_85912433_X1_Y5_1725189360_0/a_746_5166# m1_2290_6188# VOUT VDD sky130_fd_pr__pfet_01v8 ad=0.147 pd=1.33 as=0.147 ps=1.33 w=1.05 l=0.15
X71 SCM_PMOS_85912433_X1_Y5_1725189360_0/a_402_2814# m1_2290_6188# m1_2290_6188# VDD sky130_fd_pr__pfet_01v8 ad=0.147 pd=1.33 as=0.147 ps=1.33 w=1.05 l=0.15
X72 SCM_PMOS_85912433_X1_Y5_1725189360_0/a_230_5166# m1_2290_6188# VDD VDD sky130_fd_pr__pfet_01v8 ad=0.147 pd=1.33 as=0.278 ps=2.63 w=1.05 l=0.15
X73 VDD m1_2290_6188# SCM_PMOS_85912433_X1_Y5_1725189360_0/a_746_5166# VDD sky130_fd_pr__pfet_01v8 ad=0.278 pd=2.63 as=0.147 ps=1.33 w=1.05 l=0.15
X74 SCM_PMOS_85912433_X1_Y5_1725189360_0/a_230_462# m1_2290_6188# VDD VDD sky130_fd_pr__pfet_01v8 ad=0.147 pd=1.33 as=0.278 ps=2.63 w=1.05 l=0.15
X75 SCM_PMOS_85912433_X1_Y5_1725189360_0/a_574_5166# m1_2290_6188# VDD VDD sky130_fd_pr__pfet_01v8 ad=0.147 pd=1.33 as=0.147 ps=1.33 w=1.05 l=0.15
X76 m1_2290_6188# m1_2290_6188# SCM_PMOS_85912433_X1_Y5_1725189360_0/a_230_462# VDD sky130_fd_pr__pfet_01v8 ad=0.147 pd=1.33 as=0.147 ps=1.33 w=1.05 l=0.15
X77 m1_2290_6188# m1_2290_6188# SCM_PMOS_85912433_X1_Y5_1725189360_0/a_230_5166# VDD sky130_fd_pr__pfet_01v8 ad=0.147 pd=1.33 as=0.147 ps=1.33 w=1.05 l=0.15
X78 VOUT m1_2290_6188# SCM_PMOS_85912433_X1_Y5_1725189360_0/a_574_462# VDD sky130_fd_pr__pfet_01v8 ad=0.147 pd=1.33 as=0.147 ps=1.33 w=1.05 l=0.15
X79 VOUT m1_2290_6188# SCM_PMOS_85912433_X1_Y5_1725189360_0/a_574_5166# VDD sky130_fd_pr__pfet_01v8 ad=0.147 pd=1.33 as=0.147 ps=1.33 w=1.05 l=0.15
X80 SCM_PMOS_85912433_X1_Y5_1725189360_0/a_402_5166# m1_2290_6188# m1_2290_6188# VDD sky130_fd_pr__pfet_01v8 ad=0.147 pd=1.33 as=0.147 ps=1.33 w=1.05 l=0.15
X81 SCM_PMOS_85912433_X1_Y5_1725189360_0/a_746_1638# m1_2290_6188# m1_2290_6188# VDD sky130_fd_pr__pfet_01v8 ad=0.147 pd=1.33 as=0.147 ps=1.33 w=1.05 l=0.15
X82 VDD m1_2290_6188# SCM_PMOS_85912433_X1_Y5_1725189360_0/a_402_1638# VDD sky130_fd_pr__pfet_01v8 ad=0.147 pd=1.33 as=0.147 ps=1.33 w=1.05 l=0.15
X83 SCM_PMOS_85912433_X1_Y5_1725189360_0/a_230_1638# m1_2290_6188# VDD VDD sky130_fd_pr__pfet_01v8 ad=0.147 pd=1.33 as=0.278 ps=2.63 w=1.05 l=0.15
X84 SCM_PMOS_85912433_X1_Y5_1725189360_0/a_574_1638# m1_2290_6188# VDD VDD sky130_fd_pr__pfet_01v8 ad=0.147 pd=1.33 as=0.147 ps=1.33 w=1.05 l=0.15
X85 VDD m1_2290_6188# SCM_PMOS_85912433_X1_Y5_1725189360_0/a_746_1638# VDD sky130_fd_pr__pfet_01v8 ad=0.278 pd=2.63 as=0.147 ps=1.33 w=1.05 l=0.15
X86 VOUT m1_2290_6188# SCM_PMOS_85912433_X1_Y5_1725189360_0/a_230_1638# VDD sky130_fd_pr__pfet_01v8 ad=0.147 pd=1.33 as=0.147 ps=1.33 w=1.05 l=0.15
X87 SCM_PMOS_85912433_X1_Y5_1725189360_0/a_402_462# m1_2290_6188# m1_2290_6188# VDD sky130_fd_pr__pfet_01v8 ad=0.147 pd=1.33 as=0.147 ps=1.33 w=1.05 l=0.15
X88 SCM_PMOS_85912433_X1_Y5_1725189360_1/a_402_1638# m1_2892_6188# m2_918_3743# VDD sky130_fd_pr__pfet_01v8 ad=0.294 pd=2.66 as=1.47 ps=13.3 w=1.05 l=0.15
X89 m1_2892_6188# m1_2892_6188# SCM_PMOS_85912433_X1_Y5_1725189360_1/a_574_1638# VDD sky130_fd_pr__pfet_01v8 ad=1.47 pd=13.3 as=0.294 ps=2.66 w=1.05 l=0.15
X90 SCM_PMOS_85912433_X1_Y5_1725189360_1/a_746_462# m1_2892_6188# m2_918_3743# VDD sky130_fd_pr__pfet_01v8 ad=0.294 pd=2.66 as=0 ps=0 w=1.05 l=0.15
X91 SCM_PMOS_85912433_X1_Y5_1725189360_1/a_746_3990# m1_2892_6188# m1_2892_6188# VDD sky130_fd_pr__pfet_01v8 ad=0.294 pd=2.66 as=0 ps=0 w=1.05 l=0.15
X92 VDD m1_2892_6188# SCM_PMOS_85912433_X1_Y5_1725189360_1/a_402_462# VDD sky130_fd_pr__pfet_01v8 ad=8.51 pd=79.2 as=0.294 ps=2.66 w=1.05 l=0.15
X93 VDD m1_2892_6188# SCM_PMOS_85912433_X1_Y5_1725189360_1/a_746_462# VDD sky130_fd_pr__pfet_01v8 ad=0 pd=0 as=0 ps=0 w=1.05 l=0.15
X94 VDD m1_2892_6188# SCM_PMOS_85912433_X1_Y5_1725189360_1/a_402_3990# VDD sky130_fd_pr__pfet_01v8 ad=0 pd=0 as=0.294 ps=2.66 w=1.05 l=0.15
X95 SCM_PMOS_85912433_X1_Y5_1725189360_1/a_230_3990# m1_2892_6188# VDD VDD sky130_fd_pr__pfet_01v8 ad=0.294 pd=2.66 as=0 ps=0 w=1.05 l=0.15
X96 VDD m1_2892_6188# SCM_PMOS_85912433_X1_Y5_1725189360_1/a_746_3990# VDD sky130_fd_pr__pfet_01v8 ad=0 pd=0 as=0 ps=0 w=1.05 l=0.15
X97 m2_918_3743# m1_2892_6188# SCM_PMOS_85912433_X1_Y5_1725189360_1/a_230_3990# VDD sky130_fd_pr__pfet_01v8 ad=0 pd=0 as=0 ps=0 w=1.05 l=0.15
X98 SCM_PMOS_85912433_X1_Y5_1725189360_1/a_574_3990# m1_2892_6188# VDD VDD sky130_fd_pr__pfet_01v8 ad=0.294 pd=2.66 as=0 ps=0 w=1.05 l=0.15
X99 SCM_PMOS_85912433_X1_Y5_1725189360_1/a_746_2814# m1_2892_6188# m2_918_3743# VDD sky130_fd_pr__pfet_01v8 ad=0.294 pd=2.66 as=0 ps=0 w=1.05 l=0.15
X100 m1_2892_6188# m1_2892_6188# SCM_PMOS_85912433_X1_Y5_1725189360_1/a_574_3990# VDD sky130_fd_pr__pfet_01v8 ad=0 pd=0 as=0 ps=0 w=1.05 l=0.15
X101 VDD m1_2892_6188# SCM_PMOS_85912433_X1_Y5_1725189360_1/a_402_2814# VDD sky130_fd_pr__pfet_01v8 ad=0 pd=0 as=0.294 ps=2.66 w=1.05 l=0.15
X102 SCM_PMOS_85912433_X1_Y5_1725189360_1/a_402_3990# m1_2892_6188# m2_918_3743# VDD sky130_fd_pr__pfet_01v8 ad=0 pd=0 as=0 ps=0 w=1.05 l=0.15
X103 SCM_PMOS_85912433_X1_Y5_1725189360_1/a_230_2814# m1_2892_6188# VDD VDD sky130_fd_pr__pfet_01v8 ad=0.294 pd=2.66 as=0 ps=0 w=1.05 l=0.15
X104 VDD m1_2892_6188# SCM_PMOS_85912433_X1_Y5_1725189360_1/a_746_2814# VDD sky130_fd_pr__pfet_01v8 ad=0 pd=0 as=0 ps=0 w=1.05 l=0.15
X105 SCM_PMOS_85912433_X1_Y5_1725189360_1/a_574_462# m1_2892_6188# VDD VDD sky130_fd_pr__pfet_01v8 ad=0.294 pd=2.66 as=0 ps=0 w=1.05 l=0.15
X106 m1_2892_6188# m1_2892_6188# SCM_PMOS_85912433_X1_Y5_1725189360_1/a_230_2814# VDD sky130_fd_pr__pfet_01v8 ad=0 pd=0 as=0 ps=0 w=1.05 l=0.15
X107 SCM_PMOS_85912433_X1_Y5_1725189360_1/a_574_2814# m1_2892_6188# VDD VDD sky130_fd_pr__pfet_01v8 ad=0.294 pd=2.66 as=0 ps=0 w=1.05 l=0.15
X108 m2_918_3743# m1_2892_6188# SCM_PMOS_85912433_X1_Y5_1725189360_1/a_574_2814# VDD sky130_fd_pr__pfet_01v8 ad=0 pd=0 as=0 ps=0 w=1.05 l=0.15
X109 VDD m1_2892_6188# SCM_PMOS_85912433_X1_Y5_1725189360_1/a_402_5166# VDD sky130_fd_pr__pfet_01v8 ad=0 pd=0 as=0.294 ps=2.66 w=1.05 l=0.15
X110 SCM_PMOS_85912433_X1_Y5_1725189360_1/a_746_5166# m1_2892_6188# m2_918_3743# VDD sky130_fd_pr__pfet_01v8 ad=0.294 pd=2.66 as=0 ps=0 w=1.05 l=0.15
X111 SCM_PMOS_85912433_X1_Y5_1725189360_1/a_402_2814# m1_2892_6188# m1_2892_6188# VDD sky130_fd_pr__pfet_01v8 ad=0 pd=0 as=0 ps=0 w=1.05 l=0.15
X112 SCM_PMOS_85912433_X1_Y5_1725189360_1/a_230_5166# m1_2892_6188# VDD VDD sky130_fd_pr__pfet_01v8 ad=0.294 pd=2.66 as=0 ps=0 w=1.05 l=0.15
X113 VDD m1_2892_6188# SCM_PMOS_85912433_X1_Y5_1725189360_1/a_746_5166# VDD sky130_fd_pr__pfet_01v8 ad=0 pd=0 as=0 ps=0 w=1.05 l=0.15
X114 SCM_PMOS_85912433_X1_Y5_1725189360_1/a_230_462# m1_2892_6188# VDD VDD sky130_fd_pr__pfet_01v8 ad=0.294 pd=2.66 as=0 ps=0 w=1.05 l=0.15
X115 SCM_PMOS_85912433_X1_Y5_1725189360_1/a_574_5166# m1_2892_6188# VDD VDD sky130_fd_pr__pfet_01v8 ad=0.294 pd=2.66 as=0 ps=0 w=1.05 l=0.15
X116 m1_2892_6188# m1_2892_6188# SCM_PMOS_85912433_X1_Y5_1725189360_1/a_230_462# VDD sky130_fd_pr__pfet_01v8 ad=0 pd=0 as=0 ps=0 w=1.05 l=0.15
X117 m1_2892_6188# m1_2892_6188# SCM_PMOS_85912433_X1_Y5_1725189360_1/a_230_5166# VDD sky130_fd_pr__pfet_01v8 ad=0 pd=0 as=0 ps=0 w=1.05 l=0.15
X118 m2_918_3743# m1_2892_6188# SCM_PMOS_85912433_X1_Y5_1725189360_1/a_574_462# VDD sky130_fd_pr__pfet_01v8 ad=0 pd=0 as=0 ps=0 w=1.05 l=0.15
X119 m2_918_3743# m1_2892_6188# SCM_PMOS_85912433_X1_Y5_1725189360_1/a_574_5166# VDD sky130_fd_pr__pfet_01v8 ad=0 pd=0 as=0 ps=0 w=1.05 l=0.15
X120 SCM_PMOS_85912433_X1_Y5_1725189360_1/a_402_5166# m1_2892_6188# m1_2892_6188# VDD sky130_fd_pr__pfet_01v8 ad=0 pd=0 as=0 ps=0 w=1.05 l=0.15
X121 SCM_PMOS_85912433_X1_Y5_1725189360_1/a_746_1638# m1_2892_6188# m1_2892_6188# VDD sky130_fd_pr__pfet_01v8 ad=0.294 pd=2.66 as=0 ps=0 w=1.05 l=0.15
X122 VDD m1_2892_6188# SCM_PMOS_85912433_X1_Y5_1725189360_1/a_402_1638# VDD sky130_fd_pr__pfet_01v8 ad=0 pd=0 as=0 ps=0 w=1.05 l=0.15
X123 SCM_PMOS_85912433_X1_Y5_1725189360_1/a_230_1638# m1_2892_6188# VDD VDD sky130_fd_pr__pfet_01v8 ad=0.294 pd=2.66 as=0 ps=0 w=1.05 l=0.15
X124 SCM_PMOS_85912433_X1_Y5_1725189360_1/a_574_1638# m1_2892_6188# VDD VDD sky130_fd_pr__pfet_01v8 ad=0 pd=0 as=0 ps=0 w=1.05 l=0.15
X125 VDD m1_2892_6188# SCM_PMOS_85912433_X1_Y5_1725189360_1/a_746_1638# VDD sky130_fd_pr__pfet_01v8 ad=0 pd=0 as=0 ps=0 w=1.05 l=0.15
X126 m2_918_3743# m1_2892_6188# SCM_PMOS_85912433_X1_Y5_1725189360_1/a_230_1638# VDD sky130_fd_pr__pfet_01v8 ad=0 pd=0 as=0 ps=0 w=1.05 l=0.15
X127 SCM_PMOS_85912433_X1_Y5_1725189360_1/a_402_462# m1_2892_6188# m1_2892_6188# VDD sky130_fd_pr__pfet_01v8 ad=0 pd=0 as=0 ps=0 w=1.05 l=0.15
X128 SCM_NMOS_B_85279373_X2_Y4_1725189359_0/a_746_1638# m2_918_3743# m2_918_3743# VSS sky130_fd_pr__nfet_01v8 ad=0.147 pd=1.33 as=0.147 ps=1.33 w=1.05 l=0.15
X129 VOUT m2_918_3743# SCM_NMOS_B_85279373_X2_Y4_1725189359_0/a_1262_1638# VSS sky130_fd_pr__nfet_01v8 ad=0.147 pd=1.33 as=0.147 ps=1.33 w=1.05 l=0.15
X130 li_749_5779# m2_918_3743# SCM_NMOS_B_85279373_X2_Y4_1725189359_0/a_1434_2814# VSS sky130_fd_pr__nfet_01v8 ad=0.278 pd=2.63 as=0.147 ps=1.33 w=1.05 l=0.15
X131 li_749_5779# m2_918_3743# SCM_NMOS_B_85279373_X2_Y4_1725189359_0/a_402_1638# VSS sky130_fd_pr__nfet_01v8 ad=0.147 pd=1.33 as=0.147 ps=1.33 w=1.05 l=0.15
X132 SCM_NMOS_B_85279373_X2_Y4_1725189359_0/a_230_1638# m2_918_3743# li_749_5779# VSS sky130_fd_pr__nfet_01v8 ad=0.147 pd=1.33 as=0.278 ps=2.63 w=1.05 l=0.15
X133 SCM_NMOS_B_85279373_X2_Y4_1725189359_0/a_1090_462# m2_918_3743# VOUT VSS sky130_fd_pr__nfet_01v8 ad=0.147 pd=1.33 as=0.147 ps=1.33 w=1.05 l=0.15
X134 SCM_NMOS_B_85279373_X2_Y4_1725189359_0/a_574_1638# m2_918_3743# li_749_5779# VSS sky130_fd_pr__nfet_01v8 ad=0.147 pd=1.33 as=0.147 ps=1.33 w=1.05 l=0.15
X135 li_749_5779# m2_918_3743# SCM_NMOS_B_85279373_X2_Y4_1725189359_0/a_746_1638# VSS sky130_fd_pr__nfet_01v8 ad=0.147 pd=1.33 as=0.147 ps=1.33 w=1.05 l=0.15
X136 SCM_NMOS_B_85279373_X2_Y4_1725189359_0/a_1434_1638# m2_918_3743# VOUT VSS sky130_fd_pr__nfet_01v8 ad=0.147 pd=1.33 as=0.147 ps=1.33 w=1.05 l=0.15
X137 SCM_NMOS_B_85279373_X2_Y4_1725189359_0/a_1434_462# m2_918_3743# m2_918_3743# VSS sky130_fd_pr__nfet_01v8 ad=0.147 pd=1.33 as=0.147 ps=1.33 w=1.05 l=0.15
X138 li_749_5779# m2_918_3743# SCM_NMOS_B_85279373_X2_Y4_1725189359_0/a_1434_462# VSS sky130_fd_pr__nfet_01v8 ad=0.278 pd=2.63 as=0.147 ps=1.33 w=1.05 l=0.15
X139 VOUT m2_918_3743# SCM_NMOS_B_85279373_X2_Y4_1725189359_0/a_230_1638# VSS sky130_fd_pr__nfet_01v8 ad=0.147 pd=1.33 as=0.147 ps=1.33 w=1.05 l=0.15
X140 li_749_5779# m2_918_3743# SCM_NMOS_B_85279373_X2_Y4_1725189359_0/a_1090_1638# VSS sky130_fd_pr__nfet_01v8 ad=0.147 pd=1.33 as=0.147 ps=1.33 w=1.05 l=0.15
X141 SCM_NMOS_B_85279373_X2_Y4_1725189359_0/a_918_1638# m2_918_3743# li_749_5779# VSS sky130_fd_pr__nfet_01v8 ad=0.147 pd=1.33 as=0.147 ps=1.33 w=1.05 l=0.15
X142 SCM_NMOS_B_85279373_X2_Y4_1725189359_0/a_402_462# m2_918_3743# m2_918_3743# VSS sky130_fd_pr__nfet_01v8 ad=0.147 pd=1.33 as=0.147 ps=1.33 w=1.05 l=0.15
X143 m2_918_3743# m2_918_3743# SCM_NMOS_B_85279373_X2_Y4_1725189359_0/a_574_1638# VSS sky130_fd_pr__nfet_01v8 ad=0.147 pd=1.33 as=0.147 ps=1.33 w=1.05 l=0.15
X144 SCM_NMOS_B_85279373_X2_Y4_1725189359_0/a_1262_1638# m2_918_3743# li_749_5779# VSS sky130_fd_pr__nfet_01v8 ad=0.147 pd=1.33 as=0.147 ps=1.33 w=1.05 l=0.15
X145 SCM_NMOS_B_85279373_X2_Y4_1725189359_0/a_402_1638# m2_918_3743# VOUT VSS sky130_fd_pr__nfet_01v8 ad=0.147 pd=1.33 as=0.147 ps=1.33 w=1.05 l=0.15
X146 SCM_NMOS_B_85279373_X2_Y4_1725189359_0/a_746_462# m2_918_3743# VOUT VSS sky130_fd_pr__nfet_01v8 ad=0.147 pd=1.33 as=0.147 ps=1.33 w=1.05 l=0.15
X147 m2_918_3743# m2_918_3743# SCM_NMOS_B_85279373_X2_Y4_1725189359_0/a_918_1638# VSS sky130_fd_pr__nfet_01v8 ad=0.147 pd=1.33 as=0.147 ps=1.33 w=1.05 l=0.15
X148 SCM_NMOS_B_85279373_X2_Y4_1725189359_0/a_1090_1638# m2_918_3743# m2_918_3743# VSS sky130_fd_pr__nfet_01v8 ad=0.147 pd=1.33 as=0.147 ps=1.33 w=1.05 l=0.15
X149 li_749_5779# m2_918_3743# SCM_NMOS_B_85279373_X2_Y4_1725189359_0/a_1090_462# VSS sky130_fd_pr__nfet_01v8 ad=0.147 pd=1.33 as=0.147 ps=1.33 w=1.05 l=0.15
X150 li_749_5779# m2_918_3743# SCM_NMOS_B_85279373_X2_Y4_1725189359_0/a_1434_1638# VSS sky130_fd_pr__nfet_01v8 ad=0.278 pd=2.63 as=0.147 ps=1.33 w=1.05 l=0.15
X151 li_749_5779# m2_918_3743# SCM_NMOS_B_85279373_X2_Y4_1725189359_0/a_402_462# VSS sky130_fd_pr__nfet_01v8 ad=0.147 pd=1.33 as=0.147 ps=1.33 w=1.05 l=0.15
X152 li_749_5779# m2_918_3743# SCM_NMOS_B_85279373_X2_Y4_1725189359_0/a_402_3990# VSS sky130_fd_pr__nfet_01v8 ad=0.147 pd=1.33 as=0.147 ps=1.33 w=1.05 l=0.15
X153 SCM_NMOS_B_85279373_X2_Y4_1725189359_0/a_746_3990# m2_918_3743# m2_918_3743# VSS sky130_fd_pr__nfet_01v8 ad=0.147 pd=1.33 as=0.147 ps=1.33 w=1.05 l=0.15
X154 VOUT m2_918_3743# SCM_NMOS_B_85279373_X2_Y4_1725189359_0/a_1262_3990# VSS sky130_fd_pr__nfet_01v8 ad=0.147 pd=1.33 as=0.147 ps=1.33 w=1.05 l=0.15
X155 li_749_5779# m2_918_3743# SCM_NMOS_B_85279373_X2_Y4_1725189359_0/a_746_462# VSS sky130_fd_pr__nfet_01v8 ad=0.147 pd=1.33 as=0.147 ps=1.33 w=1.05 l=0.15
X156 SCM_NMOS_B_85279373_X2_Y4_1725189359_0/a_918_462# m2_918_3743# li_749_5779# VSS sky130_fd_pr__nfet_01v8 ad=0.147 pd=1.33 as=0.147 ps=1.33 w=1.05 l=0.15
X157 SCM_NMOS_B_85279373_X2_Y4_1725189359_0/a_230_3990# m2_918_3743# li_749_5779# VSS sky130_fd_pr__nfet_01v8 ad=0.147 pd=1.33 as=0.278 ps=2.63 w=1.05 l=0.15
X158 li_749_5779# m2_918_3743# SCM_NMOS_B_85279373_X2_Y4_1725189359_0/a_746_3990# VSS sky130_fd_pr__nfet_01v8 ad=0.147 pd=1.33 as=0.147 ps=1.33 w=1.05 l=0.15
X159 SCM_NMOS_B_85279373_X2_Y4_1725189359_0/a_1434_3990# m2_918_3743# VOUT VSS sky130_fd_pr__nfet_01v8 ad=0.147 pd=1.33 as=0.147 ps=1.33 w=1.05 l=0.15
X160 VOUT m2_918_3743# SCM_NMOS_B_85279373_X2_Y4_1725189359_0/a_230_3990# VSS sky130_fd_pr__nfet_01v8 ad=0.147 pd=1.33 as=0.147 ps=1.33 w=1.05 l=0.15
X161 SCM_NMOS_B_85279373_X2_Y4_1725189359_0/a_574_3990# m2_918_3743# li_749_5779# VSS sky130_fd_pr__nfet_01v8 ad=0.147 pd=1.33 as=0.147 ps=1.33 w=1.05 l=0.15
X162 li_749_5779# m2_918_3743# SCM_NMOS_B_85279373_X2_Y4_1725189359_0/a_1090_3990# VSS sky130_fd_pr__nfet_01v8 ad=0.147 pd=1.33 as=0.147 ps=1.33 w=1.05 l=0.15
X163 SCM_NMOS_B_85279373_X2_Y4_1725189359_0/a_918_3990# m2_918_3743# li_749_5779# VSS sky130_fd_pr__nfet_01v8 ad=0.147 pd=1.33 as=0.147 ps=1.33 w=1.05 l=0.15
X164 SCM_NMOS_B_85279373_X2_Y4_1725189359_0/a_1262_462# m2_918_3743# li_749_5779# VSS sky130_fd_pr__nfet_01v8 ad=0.147 pd=1.33 as=0.147 ps=1.33 w=1.05 l=0.15
X165 m2_918_3743# m2_918_3743# SCM_NMOS_B_85279373_X2_Y4_1725189359_0/a_574_3990# VSS sky130_fd_pr__nfet_01v8 ad=0.147 pd=1.33 as=0.147 ps=1.33 w=1.05 l=0.15
X166 SCM_NMOS_B_85279373_X2_Y4_1725189359_0/a_1262_3990# m2_918_3743# li_749_5779# VSS sky130_fd_pr__nfet_01v8 ad=0.147 pd=1.33 as=0.147 ps=1.33 w=1.05 l=0.15
X167 li_749_5779# m2_918_3743# SCM_NMOS_B_85279373_X2_Y4_1725189359_0/a_402_2814# VSS sky130_fd_pr__nfet_01v8 ad=0.147 pd=1.33 as=0.147 ps=1.33 w=1.05 l=0.15
X168 SCM_NMOS_B_85279373_X2_Y4_1725189359_0/a_746_2814# m2_918_3743# VOUT VSS sky130_fd_pr__nfet_01v8 ad=0.147 pd=1.33 as=0.147 ps=1.33 w=1.05 l=0.15
X169 m2_918_3743# m2_918_3743# SCM_NMOS_B_85279373_X2_Y4_1725189359_0/a_1262_2814# VSS sky130_fd_pr__nfet_01v8 ad=0.147 pd=1.33 as=0.147 ps=1.33 w=1.05 l=0.15
X170 SCM_NMOS_B_85279373_X2_Y4_1725189359_0/a_402_3990# m2_918_3743# VOUT VSS sky130_fd_pr__nfet_01v8 ad=0.147 pd=1.33 as=0.147 ps=1.33 w=1.05 l=0.15
X171 SCM_NMOS_B_85279373_X2_Y4_1725189359_0/a_230_2814# m2_918_3743# li_749_5779# VSS sky130_fd_pr__nfet_01v8 ad=0.147 pd=1.33 as=0.278 ps=2.63 w=1.05 l=0.15
X172 m2_918_3743# m2_918_3743# SCM_NMOS_B_85279373_X2_Y4_1725189359_0/a_918_3990# VSS sky130_fd_pr__nfet_01v8 ad=0.147 pd=1.33 as=0.147 ps=1.33 w=1.05 l=0.15
X173 li_749_5779# m2_918_3743# SCM_NMOS_B_85279373_X2_Y4_1725189359_0/a_746_2814# VSS sky130_fd_pr__nfet_01v8 ad=0.147 pd=1.33 as=0.147 ps=1.33 w=1.05 l=0.15
X174 SCM_NMOS_B_85279373_X2_Y4_1725189359_0/a_1434_2814# m2_918_3743# m2_918_3743# VSS sky130_fd_pr__nfet_01v8 ad=0.147 pd=1.33 as=0.147 ps=1.33 w=1.05 l=0.15
X175 SCM_NMOS_B_85279373_X2_Y4_1725189359_0/a_574_462# m2_918_3743# li_749_5779# VSS sky130_fd_pr__nfet_01v8 ad=0.147 pd=1.33 as=0.147 ps=1.33 w=1.05 l=0.15
X176 m2_918_3743# m2_918_3743# SCM_NMOS_B_85279373_X2_Y4_1725189359_0/a_230_2814# VSS sky130_fd_pr__nfet_01v8 ad=0.147 pd=1.33 as=0.147 ps=1.33 w=1.05 l=0.15
X177 SCM_NMOS_B_85279373_X2_Y4_1725189359_0/a_574_2814# m2_918_3743# li_749_5779# VSS sky130_fd_pr__nfet_01v8 ad=0.147 pd=1.33 as=0.147 ps=1.33 w=1.05 l=0.15
X178 li_749_5779# m2_918_3743# SCM_NMOS_B_85279373_X2_Y4_1725189359_0/a_1090_2814# VSS sky130_fd_pr__nfet_01v8 ad=0.147 pd=1.33 as=0.147 ps=1.33 w=1.05 l=0.15
X179 VOUT m2_918_3743# SCM_NMOS_B_85279373_X2_Y4_1725189359_0/a_918_462# VSS sky130_fd_pr__nfet_01v8 ad=0.147 pd=1.33 as=0.147 ps=1.33 w=1.05 l=0.15
X180 SCM_NMOS_B_85279373_X2_Y4_1725189359_0/a_1090_3990# m2_918_3743# m2_918_3743# VSS sky130_fd_pr__nfet_01v8 ad=0.147 pd=1.33 as=0.147 ps=1.33 w=1.05 l=0.15
X181 SCM_NMOS_B_85279373_X2_Y4_1725189359_0/a_918_2814# m2_918_3743# li_749_5779# VSS sky130_fd_pr__nfet_01v8 ad=0.147 pd=1.33 as=0.147 ps=1.33 w=1.05 l=0.15
X182 VOUT m2_918_3743# SCM_NMOS_B_85279373_X2_Y4_1725189359_0/a_574_2814# VSS sky130_fd_pr__nfet_01v8 ad=0.147 pd=1.33 as=0.147 ps=1.33 w=1.05 l=0.15
X183 SCM_NMOS_B_85279373_X2_Y4_1725189359_0/a_1262_2814# m2_918_3743# li_749_5779# VSS sky130_fd_pr__nfet_01v8 ad=0.147 pd=1.33 as=0.147 ps=1.33 w=1.05 l=0.15
X184 SCM_NMOS_B_85279373_X2_Y4_1725189359_0/a_402_2814# m2_918_3743# m2_918_3743# VSS sky130_fd_pr__nfet_01v8 ad=0.147 pd=1.33 as=0.147 ps=1.33 w=1.05 l=0.15
X185 VOUT m2_918_3743# SCM_NMOS_B_85279373_X2_Y4_1725189359_0/a_918_2814# VSS sky130_fd_pr__nfet_01v8 ad=0.147 pd=1.33 as=0.147 ps=1.33 w=1.05 l=0.15
X186 li_749_5779# m2_918_3743# SCM_NMOS_B_85279373_X2_Y4_1725189359_0/a_1434_3990# VSS sky130_fd_pr__nfet_01v8 ad=0.278 pd=2.63 as=0.147 ps=1.33 w=1.05 l=0.15
X187 m2_918_3743# m2_918_3743# SCM_NMOS_B_85279373_X2_Y4_1725189359_0/a_1262_462# VSS sky130_fd_pr__nfet_01v8 ad=0.147 pd=1.33 as=0.147 ps=1.33 w=1.05 l=0.15
X188 SCM_NMOS_B_85279373_X2_Y4_1725189359_0/a_1090_2814# m2_918_3743# VOUT VSS sky130_fd_pr__nfet_01v8 ad=0.147 pd=1.33 as=0.147 ps=1.33 w=1.05 l=0.15
X189 SCM_NMOS_B_85279373_X2_Y4_1725189359_0/a_230_462# m2_918_3743# li_749_5779# VSS sky130_fd_pr__nfet_01v8 ad=0.147 pd=1.33 as=0.278 ps=2.63 w=1.05 l=0.15
X190 m2_918_3743# m2_918_3743# SCM_NMOS_B_85279373_X2_Y4_1725189359_0/a_230_462# VSS sky130_fd_pr__nfet_01v8 ad=0.147 pd=1.33 as=0.147 ps=1.33 w=1.05 l=0.15
X191 VOUT m2_918_3743# SCM_NMOS_B_85279373_X2_Y4_1725189359_0/a_574_462# VSS sky130_fd_pr__nfet_01v8 ad=0.147 pd=1.33 as=0.147 ps=1.33 w=1.05 l=0.15
C0 VDD SCM_NMOS_B_85279373_X2_Y4_1725189359_0/a_1262_1638# 0.00223f
C1 SCM_PMOS_85912433_X1_Y5_1725189360_1/a_574_5166# m2_918_3743# 0.00819f
C2 SCM_NMOS_5643887_X2_Y1_1725189358_0/a_918_462# ID 0.00249f
C3 DP_NMOS_B_6171529_X2_Y2_1725189357_0/a_746_1638# m1_2892_6188# 0.00819f
C4 VINP DP_NMOS_B_6171529_X2_Y2_1725189357_0/a_574_462# 0.00249f
C5 DP_NMOS_B_6171529_X2_Y2_1725189357_0/a_1434_1638# m1_2290_6188# 0.00819f
C6 SCM_NMOS_B_85279373_X2_Y4_1725189359_0/a_402_3990# VOUT 0.00819f