* Copyright 2020 The SkyWater PDK Authors
*
* Licensed under the Apache License, Version 2.0 (the "License");
* you may not use this file except in compliance with the License.
* You may obtain a copy of the License at
*
*     https://www.apache.org/licenses/LICENSE-2.0
*
* Unless required by applicable law or agreed to in writing, software
* distributed under the License is distributed on an "AS IS" BASIS,
* WITHOUT WARRANTIES OR CONDITIONS OF ANY KIND, either express or implied.
* See the License for the specific language governing permissions and
* limitations under the License.

* SKY130 Spice File.
.param sky130_fd_pr__nfet_g5v0d10v5__toxe_slope_spectre = 0.0
.param sky130_fd_pr__nfet_g5v0d10v5__vth0_slope_spectre = 0.0
.param sky130_fd_pr__nfet_g5v0d10v5__voff_slope_spectre = 0.0
.param sky130_fd_pr__nfet_g5v0d10v5__nfactor_slope_spectre = 0.0
* statistics {
*   process {
*   }
*   mismatch {
*     vary sky130_fd_pr__nfet_g5v0d10v5__toxe_slope_spectre dist=gauss std = 1.0
*     vary sky130_fd_pr__nfet_g5v0d10v5__vth0_slope_spectre dist=gauss std = 1.0
*     vary sky130_fd_pr__nfet_g5v0d10v5__voff_slope_spectre dist=gauss std = 1.0
*     vary sky130_fd_pr__nfet_g5v0d10v5__nfactor_slope_spectre dist=gauss std = 1.0
*   }
* }
.subckt  sky130_fd_pr__nfet_g5v0d10v5 d g s b
+ 
.param  l = 1 w = 1 ad = 0 as = 0 pd = 0 ps = 0 nrd = 0 nrs = 0 sa = 0 sb = 0 sd = 0 mult = 1 nf = 1.0
msky130_fd_pr__nfet_g5v0d10v5 d g s b sky130_fd_pr__nfet_g5v0d10v5__model l = {l} w = {w} ad = {ad} as = {as} pd = {pd} ps = {ps} nrd = {nrd} nrs = {nrs} sa = {sa} sb = {sb} sd = {sd} nf = {nf}
.model sky130_fd_pr__nfet_g5v0d10v5__model.0 nmos
* DC IV MOS Parameters
+ lmin = 2.0e-05 lmax = 1.0e-04 wmin = 2.0e-05 wmax = 1.0e-4
+ level = 54.0
+ tnom = 30.0
+ version = 4.5
+ toxm = 1.16e-8
+ xj = 1.5e-7
+ lln = 1.0
+ lwn = 1.0
+ wln = 1.0
+ wwn = 1.0
+ lint = 6.43795e-8
+ ll = 0.0
+ lw = 0.0
+ lwl = 0.0
+ wint = 4.3866e-8
+ wl = 0.0
+ ww = 0.0
+ wwl = 0.0
+ xl = 0.0
+ xw = 0.0
+ mobmod = 0.0
+ binunit = 2.0
+ dwg = -4.1292e-9
+ dwb = -1.6944e-9
* BSIM4 - Model Selectors
+ igcmod = 0.0
+ igbmod = 0.0
+ rgatemod = 0.0
+ rbodymod = 1.0
+ trnqsmod = 0.0
+ acnqsmod = 0.0
+ fnoimod = 1.0
+ tnoimod = 1.0
+ permod = 1.0
+ geomod = 0.0
+ rdsmod = 0.0
+ tempmod = 0.0
+ lintnoi = 0.0
+ vfbsdoff = 0.0
+ lambda = 0.0
+ vtl = 0.0
+ lc = 5.0e-9
+ xn = 3.0
+ rnoia = 0.794
+ rnoib = 0.38
+ tnoia = 7.50e+6
+ tnoib = 7.2e+6
* BSIM4 - Process Parameters
+ epsrox = 3.9
+ toxe = {1.20872e-08+sky130_fd_pr__nfet_g5v0d10v5__toxe_slope_spectre*(1.20872e-08*(sky130_fd_pr__nfet_g5v0d10v5__toxe_slope/sqrt(l*w*mult)))}
+ dtox = 0.0
+ ndep = 1.7000000000000000e+17
+ nsd = 1.0e+20
+ rshg = 0.1
+ rsh = 1.0
* Threshold Voltage Parameters
+ vth0 = {0.785543+sky130_fd_pr__nfet_g5v0d10v5__vth0_slope_spectre*(sky130_fd_pr__nfet_g5v0d10v5__vth0_slope/sqrt(l*w*mult))}
+ k1 = 0.88325
+ k2 = -0.040452
+ k3 = -0.884
+ dvt0 = 0.0
+ dvt1 = 0.53
+ dvt2 = -0.19251
+ dvt0w = 0.16
+ dvt1w = 6909100.0
+ dvt2w = -0.036016
+ w0 = 0.0
+ k3b = 0.43
* NEW BSIM4 Parameters for Level 54
+ phin = 0.0
+ lpe0 = 2.5e-8
+ lpeb = -2.182e-7
+ vbm = -3.0
+ dvtp0 = 0.0
+ dvtp1 = 0.0
* Mobility Parameters
+ vsat = 105660.0
+ ua = -5.8058e-11
+ ub = 1.67019e-18
+ uc = 6.6204e-11
+ rdsw = 724.62
+ prwb = 0.05626
+ prwg = 0.048
+ wr = 1.0
+ u0 = 0.0413323
+ a0 = 0.9411558
+ keta = -0.02132
+ a1 = 0.0
+ a2 = 0.65972622
+ ags = 0.1516163
+ b0 = 3.2933e-8
+ b1 = 0.0
* BSIM4 - Mobility Parameters
+ eu = 1.67
+ rdswmin = 0.0
+ rdw = 0.0
+ rdwmin = 0.0
+ rsw = 0.0
+ rswmin = 0.0
* Subthreshold Current Parameters
+ voff = {-0.20613+sky130_fd_pr__nfet_g5v0d10v5__voff_slope_spectre*(sky130_fd_pr__nfet_g5v0d10v5__voff_slope/sqrt(l*w*mult))}
+ nfactor = {0.99956+sky130_fd_pr__nfet_g5v0d10v5__nfactor_slope_spectre*(sky130_fd_pr__nfet_g5v0d10v5__nfactor_slope/sqrt(l*w*mult))}
+ up = 0.0
+ ud = 0.0
+ lp = 1.0
+ tvfbsdoff = 0.0
+ tvoff = 0.0
+ cit = -8.0e-4
+ cdsc = 0.0
+ cdscb = 0.0
+ cdscd = 0.0
+ eta0 = 0.032
+ etab = -0.01932
+ dsub = 0.504
* BSIM4 - Sub-threshold parameters
+ voffl = -4.2579486e-7
+ minv = 0.0
* Rout Parameters
+ pclm = 0.33405
+ pdiblc1 = 0.21098
+ pdiblc2 = 2.0e-4
+ pdiblcb = -0.26831
+ drout = 0.36075
+ pscbe1 = 937310000.0
+ pscbe2 = 1.68e-6
+ pvag = 1.99
+ delta = 0.0246
+ alpha0 = 1.4467e-5
+ alpha1 = 0.0
+ beta0 = 24.0
* BSIM4 - Rout Parameters
+ fprout = 10.125
+ pdits = 0.0
+ pditsl = 0.0
+ pditsd = 0.0
* BSIM4 - Gate Induced Drain Leakage Model Parameters
+ agidl = 5.06e-11
+ bgidl = 1058000000.0
+ cgidl = 4000.0
+ egidl = 0.8
* BSIM4 - Gate Leakage Current Parameters
+ aigbacc = 1.0
+ bigbacc = 0.0
+ cigbacc = 0.0
+ nigbacc = 1.0
+ aigbinv = 0.35
+ bigbinv = 0.03
+ cigbinv = 0.006
+ eigbinv = 1.1
+ nigbinv = 3.0
+ aigc = 0.43
+ bigc = 0.054
+ cigc = 0.075
+ nigc = 1.0
+ aigsd = 0.43
+ bigsd = 0.054
+ cigsd = 0.075
+ dlcig = 0.0
+ poxedge = 1.0
+ pigcd = 1.0
+ ntox = 1.0
+ toxref = 1.16e-8
* Temperature Effects Parameters
+ kt1 = -0.40273
+ kt2 = -0.019151
+ at = 160000.0
+ ute = -1.2986
+ ua1 = 3.0044e-9
+ ub1 = -3.7525e-18
+ uc1 = -5.9821e-11
+ kt1l = 0.0
+ prt = 0.0
* BSIM4 - High Speed RF Model Parameters
+ xrcrg1 = 12.0
+ xrcrg2 = 1.0
+ rbpb = 50.0
+ rbpd = 50.0
+ rbps = 50.0
+ rbdb = 50.0
+ rbsb = 50.0
+ gbmin = 1.0e-12
* BSIM4 - Flicker and Thermal Noise Parameters
+ noia = 2.6e+41
+ noib = 0.0
+ noic = 0.0
+ em = 4.1000000e+7
+ af = 1.0
+ ef = 0.89
+ kf = 0.0
+ ntnoi = 1.0
* BSIM4 - Layout Dependent Parasitic Model Parameters
+ dmcg = 0.0
+ dmcgt = 0.0
+ dmdg = 0.0
+ xgw = 0.0
+ xgl = 0.0
+ ngcon = 1.0
* Diode DC IV Parameters
* BSIM4 - Diode DC IV parameters
+ diomod = 1.0
+ njs = 1.0773
+ jss = 0.000375
+ jsws = 5.84e-11
+ xtis = 0.76
+ bvs = 12.636
+ xjbvs = 1.0
+ ijthsrev = 0.1
+ ijthsfwd = 0.1
* Diode and FET Capacitance Parameters
+ tpb = 0.001344
+ tpbsw = 0.00099005
+ tpbswg = 0.0
+ tcj = 0.00067434
+ tcjsw = 0.0002493
+ tcjswg = 0.0
+ cgdo = 3.059976892e-10
+ cgso = 3.059976892e-10
+ cgbo = 0.0
+ capmod = 2.0
+ xpart = 0.0
+ cgsl = 4.9879e-11
+ cgdl = 4.9879e-11
+ cf = 0.0
+ clc = 1.0e-7
+ cle = 0.6
+ dlc = 5.38675e-8
+ dwc = 2.252e-8
+ vfbcv = -1.0
+ acde = 0.4176
+ moin = 15.0
+ noff = 4.0
+ voffcv = -0.4104
+ ngate = 1.0e+23
+ lwc = 0.0
+ llc = 0.0
+ lwlc = 0.0
+ wlc = 0.0
+ wwc = 0.0
+ wwlc = 0.0
* BSIM4 - FET and Diode capacitance parameters
+ ckappas = 0.6
+ cjs = 0.00095274816
+ mjs = 0.295
+ pbs = 0.72468
+ cjsws = 1.005492404e-10
+ mjsws = 0.037586
+ pbsws = 0.29067
+ cjswgs = 6.37254e-11
+ mjswgs = 0.78692
+ pbswgs = 0.54958
* Stress Parameters
+ saref = 3.0e-6
+ sbref = 3.0e-6
+ wlod = {0+sky130_fd_pr__nfet_g5v0d10v5__wlod_diff}
+ kvth0 = {0+sky130_fd_pr__nfet_g5v0d10v5__kvth0_diff}
+ lkvth0 = {0+sky130_fd_pr__nfet_g5v0d10v5__lkvth0_diff}
+ wkvth0 = {0+sky130_fd_pr__nfet_g5v0d10v5__wkvth0_diff}
+ pkvth0 = 0.0
+ llodvth = 0.0
+ wlodvth = 1.0
+ stk2 = 0.0
+ lodk2 = 1.0
+ lodeta0 = 1.0
+ ku0 = {0+sky130_fd_pr__nfet_g5v0d10v5__ku0_diff}
+ lku0 = {0+sky130_fd_pr__nfet_g5v0d10v5__lku0_diff}
+ wku0 = {0+sky130_fd_pr__nfet_g5v0d10v5__wku0_diff}
+ pku0 = 0.0
+ llodku0 = 0.0
+ wlodku0 = 1.0
+ kvsat = {0+sky130_fd_pr__nfet_g5v0d10v5__kvsat_diff}
+ steta0 = 0.0
+ tku0 = 0.0
.model sky130_fd_pr__nfet_g5v0d10v5__model.1 nmos
* DC IV MOS Parameters
+ lmin = 8e-06 lmax = 2.0e-05 wmin = 2.0e-05 wmax = 1.0e-4
+ level = 54.0
+ tnom = 30.0
+ version = 4.5
+ toxm = 1.16e-8
+ xj = 1.5e-7
+ lln = 1.0
+ lwn = 1.0
+ wln = 1.0
+ wwn = 1.0
+ lint = 6.43795e-8
+ ll = 0.0
+ lw = 0.0
+ lwl = 0.0
+ wint = 4.3866e-8
+ wl = 0.0
+ ww = 0.0
+ wwl = 0.0
+ xl = 0.0
+ xw = 0.0
+ mobmod = 0.0
+ binunit = 2.0
+ dwg = -4.1292e-9
+ dwb = -1.6944e-9
* BSIM4 - Model Selectors
+ igcmod = 0.0
+ igbmod = 0.0
+ rgatemod = 0.0
+ rbodymod = 1.0
+ trnqsmod = 0.0
+ acnqsmod = 0.0
+ fnoimod = 1.0
+ tnoimod = 1.0
+ permod = 1.0
+ geomod = 0.0
+ rdsmod = 0.0
+ tempmod = 0.0
+ lintnoi = 0.0
+ vfbsdoff = 0.0
+ lambda = 0.0
+ vtl = 0.0
+ lc = 5.0e-9
+ xn = 3.0
+ rnoia = 0.794
+ rnoib = 0.38
+ tnoia = 7.50e+6
+ tnoib = 7.2e+6
* BSIM4 - Process Parameters
+ epsrox = 3.9
+ toxe = {1.20872e-08+sky130_fd_pr__nfet_g5v0d10v5__toxe_slope_spectre*(1.20872e-08*(sky130_fd_pr__nfet_g5v0d10v5__toxe_slope/sqrt(l*w*mult)))}
+ dtox = 0.0
+ ndep = 1.7000000000000000e+17
+ nsd = 1.0e+20
+ rshg = 0.1
+ rsh = 1.0
* Threshold Voltage Parameters
+ vth0 = {0.785543+sky130_fd_pr__nfet_g5v0d10v5__vth0_slope_spectre*(sky130_fd_pr__nfet_g5v0d10v5__vth0_slope/sqrt(l*w*mult))}
+ k1 = 0.88325
+ k2 = -0.040452
+ k3 = -0.884
+ dvt0 = 0.0
+ dvt1 = 0.53
+ dvt2 = -0.19251
+ dvt0w = 0.16
+ dvt1w = 6909100.0
+ dvt2w = -0.036016
+ w0 = 0.0
+ k3b = 0.43
* NEW BSIM4 Parameters for Level 54
+ phin = 0.0
+ lpe0 = 2.5e-8
+ lpeb = -2.182e-7
+ vbm = -3.0
+ dvtp0 = 0.0
+ dvtp1 = 0.0
* Mobility Parameters
+ vsat = 105660.0
+ ua = -5.8058e-11
+ ub = 1.67019e-18
+ uc = 6.6204e-11
+ rdsw = 724.62
+ prwb = 0.05626
+ prwg = 0.048
+ wr = 1.0
+ u0 = 0.0413323
+ a0 = 0.9411558
+ keta = -0.02132
+ a1 = 0.0
+ a2 = 0.65972622
+ ags = 0.1516163
+ b0 = 3.2933e-8
+ b1 = 0.0
* BSIM4 - Mobility Parameters
+ eu = 1.67
+ rdswmin = 0.0
+ rdw = 0.0
+ rdwmin = 0.0
+ rsw = 0.0
+ rswmin = 0.0
* Subthreshold Current Parameters
+ voff = {-0.20613+sky130_fd_pr__nfet_g5v0d10v5__voff_slope_spectre*(sky130_fd_pr__nfet_g5v0d10v5__voff_slope/sqrt(l*w*mult))}
+ nfactor = {0.99956+sky130_fd_pr__nfet_g5v0d10v5__nfactor_slope_spectre*(sky130_fd_pr__nfet_g5v0d10v5__nfactor_slope/sqrt(l*w*mult))}
+ up = 0.0
+ ud = 0.0
+ lp = 1.0
+ tvfbsdoff = 0.0
+ tvoff = 0.0
+ cit = -8.0e-4
+ cdsc = 0.0
+ cdscb = 0.0
+ cdscd = 0.0
+ eta0 = 0.032
+ etab = -0.01932
+ dsub = 0.504
* BSIM4 - Sub-threshold parameters
+ voffl = -4.2579486e-7
+ minv = 0.0
* Rout Parameters
+ pclm = 0.33405
+ pdiblc1 = 0.21098
+ pdiblc2 = 2.0e-4
+ pdiblcb = -0.26831
+ drout = 0.36075
+ pscbe1 = 937310000.0
+ pscbe2 = 1.68e-6
+ pvag = 1.99
+ delta = 0.0246
+ alpha0 = 1.4467e-5
+ alpha1 = 0.0
+ beta0 = 24.0
* BSIM4 - Rout Parameters
+ fprout = 10.125
+ pdits = 0.0
+ pditsl = 0.0
+ pditsd = 0.0
* BSIM4 - Gate Induced Drain Leakage Model Parameters
+ agidl = 5.06e-11
+ bgidl = 1058000000.0
+ cgidl = 4000.0
+ egidl = 0.8
* BSIM4 - Gate Leakage Current Parameters
+ aigbacc = 1.0
+ bigbacc = 0.0
+ cigbacc = 0.0
+ nigbacc = 1.0
+ aigbinv = 0.35
+ bigbinv = 0.03
+ cigbinv = 0.006
+ eigbinv = 1.1
+ nigbinv = 3.0
+ aigc = 0.43
+ bigc = 0.054
+ cigc = 0.075
+ nigc = 1.0
+ aigsd = 0.43
+ bigsd = 0.054
+ cigsd = 0.075
+ dlcig = 0.0
+ poxedge = 1.0
+ pigcd = 1.0
+ ntox = 1.0
+ toxref = 1.16e-8
* Temperature Effects Parameters
+ kt1 = -0.40273
+ kt2 = -0.019151
+ at = 160000.0
+ ute = -1.2986
+ ua1 = 3.0044e-9
+ ub1 = -3.7525e-18
+ uc1 = -5.9821e-11
+ kt1l = 0.0
+ prt = 0.0
* BSIM4 - High Speed RF Model Parameters
+ xrcrg1 = 12.0
+ xrcrg2 = 1.0
+ rbpb = 50.0
+ rbpd = 50.0
+ rbps = 50.0
+ rbdb = 50.0
+ rbsb = 50.0
+ gbmin = 1.0e-12
* BSIM4 - Flicker and Thermal Noise Parameters
+ noia = 2.6e+41
+ noib = 0.0
+ noic = 0.0
+ em = 4.1000000e+7
+ af = 1.0
+ ef = 0.89
+ kf = 0.0
+ ntnoi = 1.0
* BSIM4 - Layout Dependent Parasitic Model Parameters
+ dmcg = 0.0
+ dmcgt = 0.0
+ dmdg = 0.0
+ xgw = 0.0
+ xgl = 0.0
+ ngcon = 1.0
* Diode DC IV Parameters
* BSIM4 - Diode DC IV parameters
+ diomod = 1.0
+ njs = 1.0773
+ jss = 0.000375
+ jsws = 5.84e-11
+ xtis = 0.76
+ bvs = 12.636
+ xjbvs = 1.0
+ ijthsrev = 0.1
+ ijthsfwd = 0.1
* Diode and FET Capacitance Parameters
+ tpb = 0.001344
+ tpbsw = 0.00099005
+ tpbswg = 0.0
+ tcj = 0.00067434
+ tcjsw = 0.0002493
+ tcjswg = 0.0
+ cgdo = 3.059976892e-10
+ cgso = 3.059976892e-10
+ cgbo = 0.0
+ capmod = 2.0
+ xpart = 0.0
+ cgsl = 4.9879e-11
+ cgdl = 4.9879e-11
+ cf = 0.0
+ clc = 1.0e-7
+ cle = 0.6
+ dlc = 5.38675e-8
+ dwc = 2.252e-8
+ vfbcv = -1.0
+ acde = 0.4176
+ moin = 15.0
+ noff = 4.0
+ voffcv = -0.4104
+ ngate = 1.0e+23
+ lwc = 0.0
+ llc = 0.0
+ lwlc = 0.0
+ wlc = 0.0
+ wwc = 0.0
+ wwlc = 0.0
* BSIM4 - FET and Diode capacitance parameters
+ ckappas = 0.6
+ cjs = 0.00095274816
+ mjs = 0.295
+ pbs = 0.72468
+ cjsws = 1.005492404e-10
+ mjsws = 0.037586
+ pbsws = 0.29067
+ cjswgs = 6.37254e-11
+ mjswgs = 0.78692
+ pbswgs = 0.54958
* Stress Parameters
+ saref = 3.0e-6
+ sbref = 3.0e-6
+ wlod = {0+sky130_fd_pr__nfet_g5v0d10v5__wlod_diff}
+ kvth0 = {0+sky130_fd_pr__nfet_g5v0d10v5__kvth0_diff}
+ lkvth0 = {0+sky130_fd_pr__nfet_g5v0d10v5__lkvth0_diff}
+ wkvth0 = {0+sky130_fd_pr__nfet_g5v0d10v5__wkvth0_diff}
+ pkvth0 = 0.0
+ llodvth = 0.0
+ wlodvth = 1.0
+ stk2 = 0.0
+ lodk2 = 1.0
+ lodeta0 = 1.0
+ ku0 = {0+sky130_fd_pr__nfet_g5v0d10v5__ku0_diff}
+ lku0 = {0+sky130_fd_pr__nfet_g5v0d10v5__lku0_diff}
+ wku0 = {0+sky130_fd_pr__nfet_g5v0d10v5__wku0_diff}
+ pku0 = 0.0
+ llodku0 = 0.0
+ wlodku0 = 1.0
+ kvsat = {0+sky130_fd_pr__nfet_g5v0d10v5__kvsat_diff}
+ steta0 = 0.0
+ tku0 = 0.0
.model sky130_fd_pr__nfet_g5v0d10v5__model.2 nmos
* DC IV MOS Parameters
+ lmin = 4e-06 lmax = 8e-06 wmin = 2.0e-05 wmax = 1.0e-4
+ level = 54.0
+ tnom = 30.0
+ version = 4.5
+ toxm = 1.16e-8
+ xj = 1.5e-7
+ lln = 1.0
+ lwn = 1.0
+ wln = 1.0
+ wwn = 1.0
+ lint = 6.43795e-8
+ ll = 0.0
+ lw = 0.0
+ lwl = 0.0
+ wint = 4.3866e-8
+ wl = 0.0
+ ww = 0.0
+ wwl = 0.0
+ xl = 0.0
+ xw = 0.0
+ mobmod = 0.0
+ binunit = 2.0
+ dwg = -4.1292e-9
+ dwb = -1.6944e-9
* BSIM4 - Model Selectors
+ igcmod = 0.0
+ igbmod = 0.0
+ rgatemod = 0.0
+ rbodymod = 1.0
+ trnqsmod = 0.0
+ acnqsmod = 0.0
+ fnoimod = 1.0
+ tnoimod = 1.0
+ permod = 1.0
+ geomod = 0.0
+ rdsmod = 0.0
+ tempmod = 0.0
+ lintnoi = 0.0
+ vfbsdoff = 0.0
+ lambda = 0.0
+ vtl = 0.0
+ lc = 5.0e-9
+ xn = 3.0
+ rnoia = 0.794
+ rnoib = 0.38
+ tnoia = 7.50e+6
+ tnoib = 7.2e+6
* BSIM4 - Process Parameters
+ epsrox = 3.9
+ toxe = {1.20872e-08+sky130_fd_pr__nfet_g5v0d10v5__toxe_slope_spectre*(1.20872e-08*(sky130_fd_pr__nfet_g5v0d10v5__toxe_slope3/sqrt(l*w*mult)))}
+ dtox = 0.0
+ ndep = 1.7000000000000000e+17
+ nsd = 1.0e+20
+ rshg = 0.1
+ rsh = 1.0
* Threshold Voltage Parameters
+ vth0 = {0.77946515163+sky130_fd_pr__nfet_g5v0d10v5__vth0_slope_spectre*(sky130_fd_pr__nfet_g5v0d10v5__vth0_slope/sqrt(l*w*mult))} lvth0 = 4.78402092817277e-8
+ k1 = 0.88325
+ k2 = -0.041896263236075 lk2 = 1.13681439985862e-8
+ k3 = -0.884
+ dvt0 = 0.0
+ dvt1 = 0.53
+ dvt2 = -0.19251
+ dvt0w = 0.16
+ dvt1w = 6909100.0
+ dvt2w = -0.036016
+ w0 = 0.0
+ k3b = 0.43
* NEW BSIM4 Parameters for Level 54
+ phin = 0.0
+ lpe0 = 2.5e-8
+ lpeb = -2.182e-7
+ vbm = -3.0
+ dvtp0 = 0.0
+ dvtp1 = 0.0
* Mobility Parameters
+ vsat = 110499.05125 lvsat = -0.0380893386001013
+ ua = -1.0068597670945e-10 lua = 3.35535078022468e-16 pua = 1.50463276905253e-36
+ ub = 1.5699538924075e-18 lub = 7.88982559762499e-25
+ uc = 6.6204e-11
+ rdsw = 724.62
+ prwb = 0.05626
+ prwg = 0.048
+ wr = 1.0
+ u0 = 0.040142764421725 lu0 = 9.36312121467687e-9
+ a0 = 1.03526353952745 la0 = -7.40744697785784e-7
+ keta = -0.01724261541675 lketa = -3.20940767044453e-8
+ a1 = 0.0
+ a2 = 0.65972622
+ ags = 0.144271878355825 lags = 5.78097127669178e-8
+ b0 = 3.2933e-8
+ b1 = 0.0
* BSIM4 - Mobility Parameters
+ eu = 1.67
+ rdswmin = 0.0
+ rdw = 0.0
+ rdwmin = 0.0
+ rsw = 0.0
+ rswmin = 0.0
* Subthreshold Current Parameters
+ voff = {-0.20613+sky130_fd_pr__nfet_g5v0d10v5__voff_slope_spectre*(sky130_fd_pr__nfet_g5v0d10v5__voff_slope/sqrt(l*w*mult))}
+ nfactor = {1.0531863659525+sky130_fd_pr__nfet_g5v0d10v5__nfactor_slope_spectre*(sky130_fd_pr__nfet_g5v0d10v5__nfactor_slope/sqrt(l*w*mult))} lnfactor = -4.22106050366323e-7
+ up = 0.0
+ ud = 0.0
+ lp = 1.0
+ tvfbsdoff = 0.0
+ tvoff = 0.0
+ cit = -8.0e-4
+ cdsc = 0.0
+ cdscb = 0.0
+ cdscd = 0.0
+ eta0 = 0.032
+ etab = -0.01932
+ dsub = 0.504
* BSIM4 - Sub-threshold parameters
+ voffl = -4.2579486e-7
+ minv = 0.0
* Rout Parameters
+ pclm = 0.2594415078275 lpclm = 5.87261422536361e-7
+ pdiblc1 = 0.21098
+ pdiblc2 = 2.0e-4
+ pdiblcb = -0.26831
+ drout = 0.36075
+ pscbe1 = 937310000.0
+ pscbe2 = 1.68e-6
+ pvag = 1.99
+ delta = 0.0246
+ alpha0 = 1.4467e-5
+ alpha1 = 0.0
+ beta0 = 21.48369335 lbeta0 = 1.98064560720527e-5
* BSIM4 - Rout Parameters
+ fprout = 10.125
+ pdits = 0.0
+ pditsl = 0.0
+ pditsd = 0.0
* BSIM4 - Gate Induced Drain Leakage Model Parameters
+ agidl = 5.06e-11
+ bgidl = 1058000000.0
+ cgidl = 4000.0
+ egidl = 0.8
* BSIM4 - Gate Leakage Current Parameters
+ aigbacc = 1.0
+ bigbacc = 0.0
+ cigbacc = 0.0
+ nigbacc = 1.0
+ aigbinv = 0.35
+ bigbinv = 0.03
+ cigbinv = 0.006
+ eigbinv = 1.1
+ nigbinv = 3.0
+ aigc = 0.43
+ bigc = 0.054
+ cigc = 0.075
+ nigc = 1.0
+ aigsd = 0.43
+ bigsd = 0.054
+ cigsd = 0.075
+ dlcig = 0.0
+ poxedge = 1.0
+ pigcd = 1.0
+ ntox = 1.0
+ toxref = 1.16e-8
* Temperature Effects Parameters
+ kt1 = -0.414343723 lkt1 = 9.14144126402424e-8
+ kt2 = -0.019151
+ at = 237424.82 lat = -0.60942941760162
+ ute = -1.33731241 lute = 3.0471470880081e-7
+ ua1 = 3.0044e-9
+ ub1 = -3.7525e-18
+ uc1 = -5.9821e-11
+ kt1l = 0.0
+ prt = 0.0
* BSIM4 - High Speed RF Model Parameters
+ xrcrg1 = 12.0
+ xrcrg2 = 1.0
+ rbpb = 50.0
+ rbpd = 50.0
+ rbps = 50.0
+ rbdb = 50.0
+ rbsb = 50.0
+ gbmin = 1.0e-12
* BSIM4 - Flicker and Thermal Noise Parameters
+ noia = 2.6e+41
+ noib = 0.0
+ noic = 0.0
+ em = 4.1000000e+7
+ af = 1.0
+ ef = 0.89
+ kf = 0.0
+ ntnoi = 1.0
* BSIM4 - Layout Dependent Parasitic Model Parameters
+ dmcg = 0.0
+ dmcgt = 0.0
+ dmdg = 0.0
+ xgw = 0.0
+ xgl = 0.0
+ ngcon = 1.0
* Diode DC IV Parameters
* BSIM4 - Diode DC IV parameters
+ diomod = 1.0
+ njs = 1.0773
+ jss = 0.000375
+ jsws = 5.84e-11
+ xtis = 0.76
+ bvs = 12.636
+ xjbvs = 1.0
+ ijthsrev = 0.1
+ ijthsfwd = 0.1
* Diode and FET Capacitance Parameters
+ tpb = 0.001344
+ tpbsw = 0.00099005
+ tpbswg = 0.0
+ tcj = 0.00067434
+ tcjsw = 0.0002493
+ tcjswg = 0.0
+ cgdo = 3.059976892e-10
+ cgso = 3.059976892e-10
+ cgbo = 0.0
+ capmod = 2.0
+ xpart = 0.0
+ cgsl = 4.9879e-11
+ cgdl = 4.9879e-11
+ cf = 0.0
+ clc = 1.0e-7
+ cle = 0.6
+ dlc = 5.38675e-8
+ dwc = 2.252e-8
+ vfbcv = -1.0
+ acde = 0.4176
+ moin = 15.0
+ noff = 4.0
+ voffcv = -0.4104
+ ngate = 1.0e+23
+ lwc = 0.0
+ llc = 0.0
+ lwlc = 0.0
+ wlc = 0.0
+ wwc = 0.0
+ wwlc = 0.0
* BSIM4 - FET and Diode capacitance parameters
+ ckappas = 0.6
+ cjs = 0.00095274816
+ mjs = 0.295
+ pbs = 0.72468
+ cjsws = 1.005492404e-10
+ mjsws = 0.037586
+ pbsws = 0.29067
+ cjswgs = 6.37254e-11
+ mjswgs = 0.78692
+ pbswgs = 0.54958
* Stress Parameters
+ saref = 3.0e-6
+ sbref = 3.0e-6
+ wlod = {0+sky130_fd_pr__nfet_g5v0d10v5__wlod_diff}
+ kvth0 = {0+sky130_fd_pr__nfet_g5v0d10v5__kvth0_diff}
+ lkvth0 = {0+sky130_fd_pr__nfet_g5v0d10v5__lkvth0_diff}
+ wkvth0 = {0+sky130_fd_pr__nfet_g5v0d10v5__wkvth0_diff}
+ pkvth0 = 0.0
+ llodvth = 0.0
+ wlodvth = 1.0
+ stk2 = 0.0
+ lodk2 = 1.0
+ lodeta0 = 1.0
+ ku0 = {0+sky130_fd_pr__nfet_g5v0d10v5__ku0_diff}
+ lku0 = {0+sky130_fd_pr__nfet_g5v0d10v5__lku0_diff}
+ wku0 = {0+sky130_fd_pr__nfet_g5v0d10v5__wku0_diff}
+ pku0 = 0.0
+ llodku0 = 0.0
+ wlodku0 = 1.0
+ kvsat = {0+sky130_fd_pr__nfet_g5v0d10v5__kvsat_diff}
+ steta0 = 0.0
+ tku0 = 0.0
.model sky130_fd_pr__nfet_g5v0d10v5__model.3 nmos
* DC IV MOS Parameters
+ lmin = 2e-06 lmax = 4e-06 wmin = 2.0e-05 wmax = 1.0e-4
+ level = 54.0
+ tnom = 30.0
+ version = 4.5
+ toxm = 1.16e-8
+ xj = 1.5e-7
+ lln = 1.0
+ lwn = 1.0
+ wln = 1.0
+ wwn = 1.0
+ lint = 6.43795e-8
+ ll = 0.0
+ lw = 0.0
+ lwl = 0.0
+ wint = 4.3866e-8
+ wl = 0.0
+ ww = 0.0
+ wwl = 0.0
+ xl = 0.0
+ xw = 0.0
+ mobmod = 0.0
+ binunit = 2.0
+ dwg = -4.1292e-9
+ dwb = -1.6944e-9
* BSIM4 - Model Selectors
+ igcmod = 0.0
+ igbmod = 0.0
+ rgatemod = 0.0
+ rbodymod = 1.0
+ trnqsmod = 0.0
+ acnqsmod = 0.0
+ fnoimod = 1.0
+ tnoimod = 1.0
+ permod = 1.0
+ geomod = 0.0
+ rdsmod = 0.0
+ tempmod = 0.0
+ lintnoi = 0.0
+ vfbsdoff = 0.0
+ lambda = 0.0
+ vtl = 0.0
+ lc = 5.0e-9
+ xn = 3.0
+ rnoia = 0.794
+ rnoib = 0.38
+ tnoia = 7.50e+6
+ tnoib = 7.2e+6
* BSIM4 - Process Parameters
+ epsrox = 3.9
+ toxe = {1.20872e-08+sky130_fd_pr__nfet_g5v0d10v5__toxe_slope_spectre*(1.20872e-08*(sky130_fd_pr__nfet_g5v0d10v5__toxe_slope/sqrt(l*w*mult)))}
+ dtox = 0.0
+ ndep = 1.7000000000000000e+17
+ nsd = 1.0e+20
+ rshg = 0.1
+ rsh = 1.0
* Threshold Voltage Parameters
+ vth0 = {0.794841311733+sky130_fd_pr__nfet_g5v0d10v5__vth0_slope_spectre*(sky130_fd_pr__nfet_g5v0d10v5__vth0_slope/sqrt(l*w*mult))} lvth0 = -1.16846121315708e-8
+ k1 = 0.88325
+ k2 = -0.0431421107591 lk2 = 1.61911200094691e-08 wk2 = 2.11758236813575e-22
+ k3 = -0.884
+ dvt0 = 0.0
+ dvt1 = 0.53
+ dvt2 = -0.19251
+ dvt0w = 0.16
+ dvt1w = 6909100.0
+ dvt2w = -0.036016
+ w0 = 0.0
+ k3b = 0.43
* NEW BSIM4 Parameters for Level 54
+ phin = 0.0
+ lpe0 = 2.5e-8
+ lpeb = -2.182e-7
+ vbm = -3.0
+ dvtp0 = 0.0
+ dvtp1 = 0.0
* Mobility Parameters
+ vsat = 93689.627275 lvsat = 0.0269839926783018
+ ua = 1.084620204428e-10 lua = -4.74127223621206e-16 pua = 5.64237288394698e-37
+ ub = 1.534757614516e-18 lub = 9.25235833783467e-25
+ uc = 6.6204e-11
+ rdsw = 724.62
+ prwb = 0.05626
+ prwg = 0.048
+ wr = 1.0
+ u0 = 0.04229764858105 lu0 = 1.02104530684742e-9
+ a0 = 0.468487175688 la0 = 1.45338319974041e-6
+ keta = -0.0394484836965 lketa = 5.38701910207224e-8
+ a1 = 0.0
+ a2 = 0.65972622
+ ags = 0.120103548064 lags = 1.51371143894173e-7
+ b0 = 3.2933e-8
+ b1 = 0.0
* BSIM4 - Mobility Parameters
+ eu = 1.67
+ rdswmin = 0.0
+ rdw = 0.0
+ rdwmin = 0.0
+ rsw = 0.0
+ rswmin = 0.0
* Subthreshold Current Parameters
+ voff = {-0.20613+sky130_fd_pr__nfet_g5v0d10v5__voff_slope_spectre*(sky130_fd_pr__nfet_g5v0d10v5__voff_slope/sqrt(l*w*mult))}
+ nfactor = {0.99177308345+sky130_fd_pr__nfet_g5v0d10v5__nfactor_slope_spectre*(sky130_fd_pr__nfet_g5v0d10v5__nfactor_slope/sqrt(l*w*mult))} lnfactor = -1.84360433198061e-7
+ up = 0.0
+ ud = 0.0
+ lp = 1.0
+ tvfbsdoff = 0.0
+ tvoff = 0.0
+ cit = -8.0e-4
+ cdsc = 0.0
+ cdscb = 0.0
+ cdscd = 0.0
+ eta0 = 0.032
+ etab = -0.01932
+ dsub = 0.504
* BSIM4 - Sub-threshold parameters
+ voffl = -4.2579486e-7
+ minv = 0.0
* Rout Parameters
+ pclm = 0.603475506185 lpclm = -7.44577097299126e-7
+ pdiblc1 = 0.21098
+ pdiblc2 = 2.0e-4
+ pdiblcb = -0.26831
+ drout = 0.36075
+ pscbe1 = 937310000.0
+ pscbe2 = 1.68e-6
+ pvag = 1.99
+ delta = 0.0246
+ alpha0 = 1.4467e-5
+ alpha1 = 0.0
+ beta0 = 23.823078356 lbeta0 = 1.07501329220402e-5
* BSIM4 - Rout Parameters
+ fprout = 10.125
+ pdits = 0.0
+ pditsl = 0.0
+ pditsd = 0.0
* BSIM4 - Gate Induced Drain Leakage Model Parameters
+ agidl = 5.06e-11
+ bgidl = 1058000000.0
+ cgidl = 4000.0
+ egidl = 0.8
* BSIM4 - Gate Leakage Current Parameters
+ aigbacc = 1.0
+ bigbacc = 0.0
+ cigbacc = 0.0
+ nigbacc = 1.0
+ aigbinv = 0.35
+ bigbinv = 0.03
+ cigbinv = 0.006
+ eigbinv = 1.1
+ nigbinv = 3.0
+ aigc = 0.43
+ bigc = 0.054
+ cigc = 0.075
+ nigc = 1.0
+ aigsd = 0.43
+ bigsd = 0.054
+ cigsd = 0.075
+ dlcig = 0.0
+ poxedge = 1.0
+ pigcd = 1.0
+ ntox = 1.0
+ toxref = 1.16e-8
* Temperature Effects Parameters
+ kt1 = -0.407571169 lkt1 = 6.51962239207292e-8
+ kt2 = -0.019151
+ at = 139879.712 lat = -0.231808796162592
+ ute = -1.22117518 lute = -1.4488049760162e-7
+ ua1 = 3.0044e-9
+ ub1 = -3.7525e-18
+ uc1 = -5.9821e-11
+ kt1l = 0.0
+ prt = 0.0
* BSIM4 - High Speed RF Model Parameters
+ xrcrg1 = 12.0
+ xrcrg2 = 1.0
+ rbpb = 50.0
+ rbpd = 50.0
+ rbps = 50.0
+ rbdb = 50.0
+ rbsb = 50.0
+ gbmin = 1.0e-12
* BSIM4 - Flicker and Thermal Noise Parameters
+ noia = 2.6e+41
+ noib = 0.0
+ noic = 0.0
+ em = 4.1000000e+7
+ af = 1.0
+ ef = 0.89
+ kf = 0.0
+ ntnoi = 1.0
* BSIM4 - Layout Dependent Parasitic Model Parameters
+ dmcg = 0.0
+ dmcgt = 0.0
+ dmdg = 0.0
+ xgw = 0.0
+ xgl = 0.0
+ ngcon = 1.0
* Diode DC IV Parameters
* BSIM4 - Diode DC IV parameters
+ diomod = 1.0
+ njs = 1.0773
+ jss = 0.000375
+ jsws = 5.84e-11
+ xtis = 0.76
+ bvs = 12.636
+ xjbvs = 1.0
+ ijthsrev = 0.1
+ ijthsfwd = 0.1
* Diode and FET Capacitance Parameters
+ tpb = 0.001344
+ tpbsw = 0.00099005
+ tpbswg = 0.0
+ tcj = 0.00067434
+ tcjsw = 0.0002493
+ tcjswg = 0.0
+ cgdo = 3.059976892e-10
+ cgso = 3.059976892e-10
+ cgbo = 0.0
+ capmod = 2.0
+ xpart = 0.0
+ cgsl = 4.9879e-11
+ cgdl = 4.9879e-11
+ cf = 0.0
+ clc = 1.0e-7
+ cle = 0.6
+ dlc = 5.38675e-8
+ dwc = 2.252e-8
+ vfbcv = -1.0
+ acde = 0.4176
+ moin = 15.0
+ noff = 4.0
+ voffcv = -0.4104
+ ngate = 1.0e+23
+ lwc = 0.0
+ llc = 0.0
+ lwlc = 0.0
+ wlc = 0.0
+ wwc = 0.0
+ wwlc = 0.0
* BSIM4 - FET and Diode capacitance parameters
+ ckappas = 0.6
+ cjs = 0.00095274816
+ mjs = 0.295
+ pbs = 0.72468
+ cjsws = 1.005492404e-10
+ mjsws = 0.037586
+ pbsws = 0.29067
+ cjswgs = 6.37254e-11
+ mjswgs = 0.78692
+ pbswgs = 0.54958
* Stress Parameters
+ saref = 3.0e-6
+ sbref = 3.0e-6
+ wlod = {0+sky130_fd_pr__nfet_g5v0d10v5__wlod_diff}
+ kvth0 = {0+sky130_fd_pr__nfet_g5v0d10v5__kvth0_diff}
+ lkvth0 = {0+sky130_fd_pr__nfet_g5v0d10v5__lkvth0_diff}
+ wkvth0 = {0+sky130_fd_pr__nfet_g5v0d10v5__wkvth0_diff}
+ pkvth0 = 0.0
+ llodvth = 0.0
+ wlodvth = 1.0
+ stk2 = 0.0
+ lodk2 = 1.0
+ lodeta0 = 1.0
+ ku0 = {0+sky130_fd_pr__nfet_g5v0d10v5__ku0_diff}
+ lku0 = {0+sky130_fd_pr__nfet_g5v0d10v5__lku0_diff}
+ wku0 = {0+sky130_fd_pr__nfet_g5v0d10v5__wku0_diff}
+ pku0 = 0.0
+ llodku0 = 0.0
+ wlodku0 = 1.0
+ kvsat = {0+sky130_fd_pr__nfet_g5v0d10v5__kvsat_diff}
+ steta0 = 0.0
+ tku0 = 0.0
.model sky130_fd_pr__nfet_g5v0d10v5__model.4 nmos
* DC IV MOS Parameters
+ lmin = 1e-06 lmax = 2e-06 wmin = 2.0e-05 wmax = 1.0e-4
+ level = 54.0
+ tnom = 30.0
+ version = 4.5
+ toxm = 1.16e-8
+ xj = 1.5e-7
+ lln = 1.0
+ lwn = 1.0
+ wln = 1.0
+ wwn = 1.0
+ lint = 6.43795e-8
+ ll = 0.0
+ lw = 0.0
+ lwl = 0.0
+ wint = 4.3866e-8
+ wl = 0.0
+ ww = 0.0
+ wwl = 0.0
+ xl = 0.0
+ xw = 0.0
+ mobmod = 0.0
+ binunit = 2.0
+ dwg = -4.1292e-9
+ dwb = -1.6944e-9
* BSIM4 - Model Selectors
+ igcmod = 0.0
+ igbmod = 0.0
+ rgatemod = 0.0
+ rbodymod = 1.0
+ trnqsmod = 0.0
+ acnqsmod = 0.0
+ fnoimod = 1.0
+ tnoimod = 1.0
+ permod = 1.0
+ geomod = 0.0
+ rdsmod = 0.0
+ tempmod = 0.0
+ lintnoi = 0.0
+ vfbsdoff = 0.0
+ lambda = 0.0
+ vtl = 0.0
+ lc = 5.0e-9
+ xn = 3.0
+ rnoia = 0.794
+ rnoib = 0.38
+ tnoia = 7.50e+6
+ tnoib = 7.2e+6
* BSIM4 - Process Parameters
+ epsrox = 3.9
+ toxe = {1.20872e-08+sky130_fd_pr__nfet_g5v0d10v5__toxe_slope_spectre*(1.20872e-08*(sky130_fd_pr__nfet_g5v0d10v5__toxe_slope/sqrt(l*w*mult)))}
+ dtox = 0.0
+ ndep = 1.7000000000000000e+17
+ nsd = 1.0e+20
+ rshg = 0.1
+ rsh = 1.0
* Threshold Voltage Parameters
+ vth0 = {0.771193089784+sky130_fd_pr__nfet_g5v0d10v5__vth0_slope_spectre*(sky130_fd_pr__nfet_g5v0d10v5__vth0_slope/sqrt(l*w*mult))} lvth0 = 3.25669103564979e-8
+ k1 = 0.88325
+ k2 = -0.041376660105 lk2 = 1.28875363620403e-08 wk2 = 2.11758236813575e-22
+ k3 = -0.884
+ dvt0 = 0.0
+ dvt1 = 0.53
+ dvt2 = -0.19251
+ dvt0w = 0.16
+ dvt1w = 6909100.0
+ dvt2w = -0.036016
+ w0 = 0.0
+ k3b = 0.43
* NEW BSIM4 Parameters for Level 54
+ phin = 0.0
+ lpe0 = 2.5e-8
+ lpeb = -2.182e-7
+ vbm = -3.0
+ dvtp0 = 0.0
+ dvtp1 = 0.0
* Mobility Parameters
+ vsat = 120222.863623 lvsat = -0.0226660870387661
+ ua = -1.399951218104e-10 lua = -9.2040322941853e-18
+ ub = 1.742611530568e-18 lub = 5.36291064056405e-25
+ uc = 6.6204e-11
+ rdsw = 724.62
+ prwb = 0.05626
+ prwg = 0.048
+ wr = 1.0
+ u0 = 0.0415885387118 lu0 = 2.34796076769266e-9
+ a0 = 1.735670644457 la0 = -9.17822461542362e-7
+ keta = 0.003722446428 lketa = -2.69130234363772e-08 pketa = 5.04870979341448e-29
+ a1 = 0.0
+ a2 = 0.65972622
+ ags = 0.132297033427 lags = 1.28554194150027e-7
+ b0 = 3.2933e-8
+ b1 = 0.0
* BSIM4 - Mobility Parameters
+ eu = 1.67
+ rdswmin = 0.0
+ rdw = 0.0
+ rdwmin = 0.0
+ rsw = 0.0
+ rswmin = 0.0
* Subthreshold Current Parameters
+ voff = {-0.20613+sky130_fd_pr__nfet_g5v0d10v5__voff_slope_spectre*(sky130_fd_pr__nfet_g5v0d10v5__voff_slope/sqrt(l*w*mult))}
+ nfactor = {0.90313858535+sky130_fd_pr__nfet_g5v0d10v5__nfactor_slope_spectre*(sky130_fd_pr__nfet_g5v0d10v5__nfactor_slope/sqrt(l*w*mult))} lnfactor = -1.85039263389194e-8
+ up = 0.0
+ ud = 0.0
+ lp = 1.0
+ tvfbsdoff = 0.0
+ tvoff = 0.0
+ cit = -8.0e-4
+ cdsc = 0.0
+ cdscb = 0.0
+ cdscd = 0.0
+ eta0 = 0.032
+ etab = -0.01932
+ dsub = 0.504
* BSIM4 - Sub-threshold parameters
+ voffl = -4.2579486e-7
+ minv = 0.0
* Rout Parameters
+ pclm = 0.09363295632 lpclm = 2.09461185552807e-7
+ pdiblc1 = 0.21098
+ pdiblc2 = 2.0e-4
+ pdiblcb = -0.26831
+ drout = 0.36075
+ pscbe1 = 937310000.0
+ pscbe2 = 1.68e-6
+ pvag = 1.99
+ delta = 0.0246
+ alpha0 = 1.4467e-5
+ alpha1 = 0.0
+ beta0 = 27.013521388 lbeta0 = 4.78004511239749e-6
* BSIM4 - Rout Parameters
+ fprout = 10.125
+ pdits = 0.0
+ pditsl = 0.0
+ pditsd = 0.0
* BSIM4 - Gate Induced Drain Leakage Model Parameters
+ agidl = 5.06e-11
+ bgidl = 1058000000.0
+ cgidl = 4000.0
+ egidl = 0.8
* BSIM4 - Gate Leakage Current Parameters
+ aigbacc = 1.0
+ bigbacc = 0.0
+ cigbacc = 0.0
+ nigbacc = 1.0
+ aigbinv = 0.35
+ bigbinv = 0.03
+ cigbinv = 0.006
+ eigbinv = 1.1
+ nigbinv = 3.0
+ aigc = 0.43
+ bigc = 0.054
+ cigc = 0.075
+ nigc = 1.0
+ aigsd = 0.43
+ bigsd = 0.054
+ cigsd = 0.075
+ dlcig = 0.0
+ poxedge = 1.0
+ pigcd = 1.0
+ ntox = 1.0
+ toxref = 1.16e-8
* Temperature Effects Parameters
+ kt1 = -0.38144241 lkt1 = 1.630301880081e-8
+ kt2 = -0.019151
+ at = 9030.072 lat = 0.013042415040648
+ ute = -1.2986
+ ua1 = 3.0044e-9
+ ub1 = -4.0140465482e-18 lub1 = 4.89416624400316e-25
+ uc1 = -5.9821e-11
+ kt1l = 0.0
+ prt = 0.0
* BSIM4 - High Speed RF Model Parameters
+ xrcrg1 = 12.0
+ xrcrg2 = 1.0
+ rbpb = 50.0
+ rbpd = 50.0
+ rbps = 50.0
+ rbdb = 50.0
+ rbsb = 50.0
+ gbmin = 1.0e-12
* BSIM4 - Flicker and Thermal Noise Parameters
+ noia = 2.6e+41
+ noib = 0.0
+ noic = 0.0
+ em = 4.1000000e+7
+ af = 1.0
+ ef = 0.89
+ kf = 0.0
+ ntnoi = 1.0
* BSIM4 - Layout Dependent Parasitic Model Parameters
+ dmcg = 0.0
+ dmcgt = 0.0
+ dmdg = 0.0
+ xgw = 0.0
+ xgl = 0.0
+ ngcon = 1.0
* Diode DC IV Parameters
* BSIM4 - Diode DC IV parameters
+ diomod = 1.0
+ njs = 1.0773
+ jss = 0.000375
+ jsws = 5.84e-11
+ xtis = 0.76
+ bvs = 12.636
+ xjbvs = 1.0
+ ijthsrev = 0.1
+ ijthsfwd = 0.1
* Diode and FET Capacitance Parameters
+ tpb = 0.001344
+ tpbsw = 0.00099005
+ tpbswg = 0.0
+ tcj = 0.00067434
+ tcjsw = 0.0002493
+ tcjswg = 0.0
+ cgdo = 3.059976892e-10
+ cgso = 3.059976892e-10
+ cgbo = 0.0
+ capmod = 2.0
+ xpart = 0.0
+ cgsl = 4.9879e-11
+ cgdl = 4.9879e-11
+ cf = 0.0
+ clc = 1.0e-7
+ cle = 0.6
+ dlc = 5.38675e-8
+ dwc = 2.252e-8
+ vfbcv = -1.0
+ acde = 0.4176
+ moin = 15.0
+ noff = 4.0
+ voffcv = -0.4104