* Copyright 2020 The SkyWater PDK Authors
*
* Licensed under the Apache License, Version 2.0 (the "License");
* you may not use this file except in compliance with the License.
* You may obtain a copy of the License at
*
*     https://www.apache.org/licenses/LICENSE-2.0
*
* Unless required by applicable law or agreed to in writing, software
* distributed under the License is distributed on an "AS IS" BASIS,
* WITHOUT WARRANTIES OR CONDITIONS OF ANY KIND, either express or implied.
* See the License for the specific language governing permissions and
* limitations under the License.

* SKY130 Spice File.
.param sky130_fd_pr__nfet_g5v0d10v5__toxe_slope_spectre = 0.0
.param sky130_fd_pr__nfet_g5v0d10v5__vth0_slope_spectre = 0.0
.param sky130_fd_pr__nfet_g5v0d10v5__voff_slope_spectre = 0.0
.param sky130_fd_pr__nfet_g5v0d10v5__nfactor_slope_spectre = 0.0
* statistics {
*   process {
*   }
*   mismatch {
*     vary sky130_fd_pr__nfet_g5v0d10v5__toxe_slope_spectre dist=gauss std = 1.0
*     vary sky130_fd_pr__nfet_g5v0d10v5__vth0_slope_spectre dist=gauss std = 1.0
*     vary sky130_fd_pr__nfet_g5v0d10v5__voff_slope_spectre dist=gauss std = 1.0
*     vary sky130_fd_pr__nfet_g5v0d10v5__nfactor_slope_spectre dist=gauss std = 1.0
*   }
* }
.subckt  sky130_fd_pr__nfet_g5v0d10v5 d g s b
+ 
.param  l = 1 w = 1 ad = 0 as = 0 pd = 0 ps = 0 nrd = 0 nrs = 0 sa = 0 sb = 0 sd = 0 mult = 1 nf = 1.0
msky130_fd_pr__nfet_g5v0d10v5 d g s b sky130_fd_pr__nfet_g5v0d10v5__model l = {l} w = {w} ad = {ad} as = {as} pd = {pd} ps = {ps} nrd = {nrd} nrs = {nrs} sa = {sa} sb = {sb} sd = {sd} nf = {nf}
.model sky130_fd_pr__nfet_g5v0d10v5__model.0 nmos
* DC IV MOS Parameters
+ lmin = 2.0e-05 lmax = 1.0e-04 wmin = 2.0e-05 wmax = 1.0e-4
+ level = 54.0
+ tnom = 30.0
+ version = 4.5
+ toxm = 1.16e-8
+ xj = 1.5e-7
+ lln = 1.0
+ lwn = 1.0
+ wln = 1.0
+ wwn = 1.0
+ lint = 7.6507e-8
+ ll = 0.0
+ lw = 0.0
+ lwl = 0.0
+ wint = 2.1346e-8
+ wl = 0.0
+ ww = 0.0
+ wwl = 0.0
+ xl = 0.0
+ xw = 0.0
+ mobmod = 0.0
+ binunit = 2.0
+ dwg = -4.1292e-9
+ dwb = -1.6944e-9
* BSIM4 - Model Selectors
+ igcmod = 0.0
+ igbmod = 0.0
+ rgatemod = 0.0
+ rbodymod = 1.0
+ trnqsmod = 0.0
+ acnqsmod = 0.0
+ fnoimod = 1.0
+ tnoimod = 1.0
+ permod = 1.0
+ geomod = 0.0
+ rdsmod = 0.0
+ tempmod = 0.0
+ lintnoi = 0.0
+ vfbsdoff = 0.0
+ lambda = 0.0
+ vtl = 0.0
+ lc = 5.0e-9
+ xn = 3.0
+ rnoia = 0.794
+ rnoib = 0.38
+ tnoia = 7.50e+6
+ tnoib = 7.2e+6
* BSIM4 - Process Parameters
+ epsrox = 3.9
+ toxe = {1.16e-08+sky130_fd_pr__nfet_g5v0d10v5__toxe_slope_spectre*(1.16e-08*(sky130_fd_pr__nfet_g5v0d10v5__toxe_slope/sqrt(l*w*mult)))}
+ dtox = 0.0
+ ndep = 1.7000000000000000e+17
+ nsd = 1.0e+20
+ rshg = 0.1
+ rsh = 1.0
* Threshold Voltage Parameters
+ vth0 = {0.788635+sky130_fd_pr__nfet_g5v0d10v5__vth0_slope_spectre*(sky130_fd_pr__nfet_g5v0d10v5__vth0_slope/sqrt(l*w*mult))}
+ k1 = 0.88325
+ k2 = -0.039667
+ k3 = -0.884
+ dvt0 = 0.0
+ dvt1 = 0.53
+ dvt2 = -0.19251
+ dvt0w = 0.16
+ dvt1w = 6909100.0
+ dvt2w = -0.036016
+ w0 = 0.0
+ k3b = 0.43
* NEW BSIM4 Parameters for Level 54
+ phin = 0.0
+ lpe0 = 2.5e-8
+ lpeb = -2.182e-7
+ vbm = -3.0
+ dvtp0 = 0.0
+ dvtp1 = 0.0
* Mobility Parameters
+ vsat = 105660.0
+ ua = -5.92431e-11
+ ub = 1.71671e-18
+ uc = 6.6204e-11
+ rdsw = 724.62
+ prwb = 0.05626
+ prwg = 0.048
+ wr = 1.0
+ u0 = 0.0421082
+ a0 = 0.9425989
+ keta = -0.02132
+ a1 = 0.0
+ a2 = 0.65972622
+ ags = 0.1494178
+ b0 = 3.2933e-8
+ b1 = 0.0
* BSIM4 - Mobility Parameters
+ eu = 1.67
+ rdswmin = 0.0
+ rdw = 0.0
+ rdwmin = 0.0
+ rsw = 0.0
+ rswmin = 0.0
* Subthreshold Current Parameters
+ voff = {-0.00613+sky130_fd_pr__nfet_g5v0d10v5__voff_slope_spectre*(sky130_fd_pr__nfet_g5v0d10v5__voff_slope/sqrt(l*w*mult))}
+ nfactor = {0.0+sky130_fd_pr__nfet_g5v0d10v5__nfactor_slope_spectre*(sky130_fd_pr__nfet_g5v0d10v5__nfactor_slope/sqrt(l*w*mult))}
+ up = 0.0
+ ud = 0.0
+ lp = 1.0
+ tvfbsdoff = 0.0
+ tvoff = 0.0
+ cit = -8.0e-4
+ cdsc = 0.0
+ cdscb = 0.0
+ cdscd = 0.0
+ eta0 = 0.032
+ etab = -0.01932
+ dsub = 0.504
* BSIM4 - Sub-threshold parameters
+ voffl = -4.2579486e-7
+ minv = 0.0
* Rout Parameters
+ pclm = 0.33405
+ pdiblc1 = 0.21098
+ pdiblc2 = 2.0e-4
+ pdiblcb = -0.26831
+ drout = 0.36075
+ pscbe1 = 937310000.0
+ pscbe2 = 1.68e-6
+ pvag = 1.99
+ delta = 0.0246
+ alpha0 = 1.4467e-5
+ alpha1 = 0.0
+ beta0 = 24.0
* BSIM4 - Rout Parameters
+ fprout = 10.125
+ pdits = 0.0
+ pditsl = 0.0
+ pditsd = 0.0
* BSIM4 - Gate Induced Drain Leakage Model Parameters
+ agidl = 8.339e-12
+ bgidl = 1058000000.0
+ cgidl = 4000.0
+ egidl = 0.8
* BSIM4 - Gate Leakage Current Parameters
+ aigbacc = 1.0
+ bigbacc = 0.0
+ cigbacc = 0.0
+ nigbacc = 1.0
+ aigbinv = 0.35
+ bigbinv = 0.03
+ cigbinv = 0.006
+ eigbinv = 1.1
+ nigbinv = 3.0
+ aigc = 0.43
+ bigc = 0.054
+ cigc = 0.075
+ nigc = 1.0
+ aigsd = 0.43
+ bigsd = 0.054
+ cigsd = 0.075
+ dlcig = 0.0
+ poxedge = 1.0
+ pigcd = 1.0
+ ntox = 1.0
+ toxref = 1.16e-8
* Temperature Effects Parameters
+ kt1 = -0.40273047114
+ kt2 = -0.019151
+ at = 160000.0
+ ute = -1.2986
+ ua1 = 3.0044e-9
+ ub1 = -3.7525e-18
+ uc1 = -5.9821e-11
+ kt1l = 0.0
+ prt = 0.0
* BSIM4 - High Speed RF Model Parameters
+ xrcrg1 = 12.0
+ xrcrg2 = 1.0
+ rbpb = 50.0
+ rbpd = 50.0
+ rbps = 50.0
+ rbdb = 50.0
+ rbsb = 50.0
+ gbmin = 1.0e-12
* BSIM4 - Flicker and Thermal Noise Parameters
+ noia = 2.6e+41
+ noib = 0.0
+ noic = 0.0
+ em = 41000000.0
+ af = 1.0
+ ef = 0.89
+ kf = 0.0
+ ntnoi = 1.0
* BSIM4 - Layout Dependent Parasitic Model Parameters
+ dmcg = 0.0
+ dmcgt = 0.0
+ dmdg = 0.0
+ xgw = 0.0
+ xgl = 0.0
+ ngcon = 1.0
* Diode DC IV Parameters
* BSIM4 - Diode DC IV parameters
+ diomod = 1.0
+ njs = 1.0773
+ jss = 0.000375
+ jsws = 5.84e-11
+ xtis = 0.76
+ bvs = 12.636
+ xjbvs = 1.0
+ ijthsrev = 0.1
+ ijthsfwd = 0.1
* Diode and FET Capacitance Parameters
+ tpb = 0.001344
+ tpbsw = 0.00099005
+ tpbswg = 0.0
+ tcj = 0.00067434
+ tcjsw = 0.0002493
+ tcjswg = 0.0
+ cgdo = 2.75467857e-10
+ cgso = 2.75467857e-10
+ cgbo = 0.0
+ capmod = 2.0
+ xpart = 0.0
+ cgsl = 4.49025e-11
+ cgdl = 4.49025e-11
+ cf = 0.0
+ clc = 1.0e-7
+ cle = 0.6
+ dlc = 6.5995e-8
+ dwc = 0.0
+ vfbcv = -1.0
+ acde = 0.4176
+ moin = 15.0
+ noff = 4.0
+ voffcv = -0.4104
+ ngate = 1.0e+23
+ lwc = 0.0
+ llc = 0.0
+ lwlc = 0.0
+ wlc = 0.0
+ wwc = 0.0
+ wwlc = 0.0
* BSIM4 - FET and Diode capacitance parameters
+ ckappas = 0.6
+ cjs = 0.00084698656
+ mjs = 0.295
+ pbs = 0.72468
+ cjsws = 8.64309376e-11
+ mjsws = 0.037586
+ pbsws = 0.29067
+ cjswgs = 5.47776e-11
+ mjswgs = 0.78692
+ pbswgs = 0.54958
* Stress Parameters
+ saref = 3.0e-6
+ sbref = 3.0e-6
+ wlod = {0+sky130_fd_pr__nfet_g5v0d10v5__wlod_diff}
+ kvth0 = {0+sky130_fd_pr__nfet_g5v0d10v5__kvth0_diff}
+ lkvth0 = {0+sky130_fd_pr__nfet_g5v0d10v5__lkvth0_diff}
+ wkvth0 = {0+sky130_fd_pr__nfet_g5v0d10v5__wkvth0_diff}
+ pkvth0 = 0.0
+ llodvth = 0.0
+ wlodvth = 1.0
+ stk2 = 0.0
+ lodk2 = 1.0
+ lodeta0 = 1.0
+ ku0 = {0+sky130_fd_pr__nfet_g5v0d10v5__ku0_diff}
+ lku0 = {0+sky130_fd_pr__nfet_g5v0d10v5__lku0_diff}
+ wku0 = {0+sky130_fd_pr__nfet_g5v0d10v5__wku0_diff}
+ pku0 = 0.0
+ llodku0 = 0.0
+ wlodku0 = 1.0
+ kvsat = {0+sky130_fd_pr__nfet_g5v0d10v5__kvsat_diff}
+ steta0 = 0.0
+ tku0 = 0.0
.model sky130_fd_pr__nfet_g5v0d10v5__model.1 nmos
* DC IV MOS Parameters
+ lmin = 8e-06 lmax = 2.0e-05 wmin = 2.0e-05 wmax = 1.0e-4
+ level = 54.0
+ tnom = 30.0
+ version = 4.5
+ toxm = 1.16e-8
+ xj = 1.5e-7
+ lln = 1.0
+ lwn = 1.0
+ wln = 1.0
+ wwn = 1.0
+ lint = 7.6507e-8
+ ll = 0.0
+ lw = 0.0
+ lwl = 0.0
+ wint = 2.1346e-8
+ wl = 0.0
+ ww = 0.0
+ wwl = 0.0
+ xl = 0.0
+ xw = 0.0
+ mobmod = 0.0
+ binunit = 2.0
+ dwg = -4.1292e-9
+ dwb = -1.6944e-9
* BSIM4 - Model Selectors
+ igcmod = 0.0
+ igbmod = 0.0
+ rgatemod = 0.0
+ rbodymod = 1.0
+ trnqsmod = 0.0
+ acnqsmod = 0.0
+ fnoimod = 1.0
+ tnoimod = 1.0
+ permod = 1.0
+ geomod = 0.0
+ rdsmod = 0.0
+ tempmod = 0.0
+ lintnoi = 0.0
+ vfbsdoff = 0.0
+ lambda = 0.0
+ vtl = 0.0
+ lc = 5.0e-9
+ xn = 3.0
+ rnoia = 0.794
+ rnoib = 0.38
+ tnoia = 7.50e+6
+ tnoib = 7.2e+6
* BSIM4 - Process Parameters
+ epsrox = 3.9
+ toxe = {1.16e-08+sky130_fd_pr__nfet_g5v0d10v5__toxe_slope_spectre*(1.16e-08*(sky130_fd_pr__nfet_g5v0d10v5__toxe_slope/sqrt(l*w*mult)))}
+ dtox = 0.0
+ ndep = 1.7000000000000000e+17
+ nsd = 1.0e+20
+ rshg = 0.1
+ rsh = 1.0
* Threshold Voltage Parameters
+ vth0 = {0.788635+sky130_fd_pr__nfet_g5v0d10v5__vth0_slope_spectre*(sky130_fd_pr__nfet_g5v0d10v5__vth0_slope/sqrt(l*w*mult))}
+ k1 = 0.88325
+ k2 = -0.039667
+ k3 = -0.884
+ dvt0 = 0.0
+ dvt1 = 0.53
+ dvt2 = -0.19251
+ dvt0w = 0.16
+ dvt1w = 6909100.0
+ dvt2w = -0.036016
+ w0 = 0.0
+ k3b = 0.43
* NEW BSIM4 Parameters for Level 54
+ phin = 0.0
+ lpe0 = 2.5e-8
+ lpeb = -2.182e-7
+ vbm = -3.0
+ dvtp0 = 0.0
+ dvtp1 = 0.0
* Mobility Parameters
+ vsat = 105660.0
+ ua = -5.92431e-11
+ ub = 1.71671e-18
+ uc = 6.6204e-11
+ rdsw = 724.62
+ prwb = 0.05626
+ prwg = 0.048
+ wr = 1.0
+ u0 = 0.0421082
+ a0 = 0.9425989
+ keta = -0.02132
+ a1 = 0.0
+ a2 = 0.65972622
+ ags = 0.1494178
+ b0 = 3.2933e-8
+ b1 = 0.0
* BSIM4 - Mobility Parameters
+ eu = 1.67
+ rdswmin = 0.0
+ rdw = 0.0
+ rdwmin = 0.0
+ rsw = 0.0
+ rswmin = 0.0
* Subthreshold Current Parameters
+ voff = {-0.00613+sky130_fd_pr__nfet_g5v0d10v5__voff_slope_spectre*(sky130_fd_pr__nfet_g5v0d10v5__voff_slope/sqrt(l*w*mult))}
+ nfactor = {0.0+sky130_fd_pr__nfet_g5v0d10v5__nfactor_slope_spectre*(sky130_fd_pr__nfet_g5v0d10v5__nfactor_slope/sqrt(l*w*mult))}
+ up = 0.0
+ ud = 0.0
+ lp = 1.0
+ tvfbsdoff = 0.0
+ tvoff = 0.0
+ cit = -8.0e-4
+ cdsc = 0.0
+ cdscb = 0.0
+ cdscd = 0.0
+ eta0 = 0.032
+ etab = -0.01932
+ dsub = 0.504
* BSIM4 - Sub-threshold parameters
+ voffl = -4.2579486e-7
+ minv = 0.0
* Rout Parameters
+ pclm = 0.33405
+ pdiblc1 = 0.21098
+ pdiblc2 = 2.0e-4
+ pdiblcb = -0.26831
+ drout = 0.36075
+ pscbe1 = 937310000.0
+ pscbe2 = 1.68e-6
+ pvag = 1.99
+ delta = 0.0246
+ alpha0 = 1.4467e-5
+ alpha1 = 0.0
+ beta0 = 24.0
* BSIM4 - Rout Parameters
+ fprout = 10.125
+ pdits = 0.0
+ pditsl = 0.0
+ pditsd = 0.0
* BSIM4 - Gate Induced Drain Leakage Model Parameters
+ agidl = 8.339e-12
+ bgidl = 1058000000.0
+ cgidl = 4000.0
+ egidl = 0.8
* BSIM4 - Gate Leakage Current Parameters
+ aigbacc = 1.0
+ bigbacc = 0.0
+ cigbacc = 0.0
+ nigbacc = 1.0
+ aigbinv = 0.35
+ bigbinv = 0.03
+ cigbinv = 0.006
+ eigbinv = 1.1
+ nigbinv = 3.0
+ aigc = 0.43
+ bigc = 0.054
+ cigc = 0.075
+ nigc = 1.0
+ aigsd = 0.43
+ bigsd = 0.054
+ cigsd = 0.075
+ dlcig = 0.0
+ poxedge = 1.0
+ pigcd = 1.0
+ ntox = 1.0
+ toxref = 1.16e-8
* Temperature Effects Parameters
+ kt1 = -0.40273047114
+ kt2 = -0.019151
+ at = 160000.0
+ ute = -1.2986
+ ua1 = 3.0044e-9
+ ub1 = -3.7525e-18
+ uc1 = -5.9821e-11
+ kt1l = 0.0
+ prt = 0.0
* BSIM4 - High Speed RF Model Parameters
+ xrcrg1 = 12.0
+ xrcrg2 = 1.0
+ rbpb = 50.0
+ rbpd = 50.0
+ rbps = 50.0
+ rbdb = 50.0
+ rbsb = 50.0
+ gbmin = 1.0e-12
* BSIM4 - Flicker and Thermal Noise Parameters
+ noia = 2.6e+41
+ noib = 0.0
+ noic = 0.0
+ em = 41000000.0
+ af = 1.0
+ ef = 0.89
+ kf = 0.0
+ ntnoi = 1.0
* BSIM4 - Layout Dependent Parasitic Model Parameters
+ dmcg = 0.0
+ dmcgt = 0.0
+ dmdg = 0.0
+ xgw = 0.0
+ xgl = 0.0
+ ngcon = 1.0
* Diode DC IV Parameters
* BSIM4 - Diode DC IV parameters
+ diomod = 1.0
+ njs = 1.0773
+ jss = 0.000375
+ jsws = 5.84e-11
+ xtis = 0.76
+ bvs = 12.636
+ xjbvs = 1.0
+ ijthsrev = 0.1
+ ijthsfwd = 0.1
* Diode and FET Capacitance Parameters
+ tpb = 0.001344
+ tpbsw = 0.00099005
+ tpbswg = 0.0
+ tcj = 0.00067434
+ tcjsw = 0.0002493
+ tcjswg = 0.0
+ cgdo = 2.75467857e-10
+ cgso = 2.75467857e-10
+ cgbo = 0.0
+ capmod = 2.0
+ xpart = 0.0
+ cgsl = 4.49025e-11
+ cgdl = 4.49025e-11
+ cf = 0.0
+ clc = 1.0e-7
+ cle = 0.6
+ dlc = 6.5995e-8
+ dwc = 0.0
+ vfbcv = -1.0
+ acde = 0.4176
+ moin = 15.0
+ noff = 4.0
+ voffcv = -0.4104
+ ngate = 1.0e+23
+ lwc = 0.0
+ llc = 0.0
+ lwlc = 0.0
+ wlc = 0.0
+ wwc = 0.0
+ wwlc = 0.0
* BSIM4 - FET and Diode capacitance parameters
+ ckappas = 0.6
+ cjs = 0.00084698656
+ mjs = 0.295
+ pbs = 0.72468
+ cjsws = 8.64309376e-11
+ mjsws = 0.037586
+ pbsws = 0.29067
+ cjswgs = 5.47776e-11
+ mjswgs = 0.78692
+ pbswgs = 0.54958
* Stress Parameters
+ saref = 3.0e-6
+ sbref = 3.0e-6
+ wlod = {0+sky130_fd_pr__nfet_g5v0d10v5__wlod_diff}
+ kvth0 = {0+sky130_fd_pr__nfet_g5v0d10v5__kvth0_diff}
+ lkvth0 = {0+sky130_fd_pr__nfet_g5v0d10v5__lkvth0_diff}
+ wkvth0 = {0+sky130_fd_pr__nfet_g5v0d10v5__wkvth0_diff}
+ pkvth0 = 0.0
+ llodvth = 0.0
+ wlodvth = 1.0
+ stk2 = 0.0
+ lodk2 = 1.0
+ lodeta0 = 1.0
+ ku0 = {0+sky130_fd_pr__nfet_g5v0d10v5__ku0_diff}
+ lku0 = {0+sky130_fd_pr__nfet_g5v0d10v5__lku0_diff}
+ wku0 = {0+sky130_fd_pr__nfet_g5v0d10v5__wku0_diff}
+ pku0 = 0.0
+ llodku0 = 0.0
+ wlodku0 = 1.0
+ kvsat = {0+sky130_fd_pr__nfet_g5v0d10v5__kvsat_diff}
+ steta0 = 0.0
+ tku0 = 0.0
.model sky130_fd_pr__nfet_g5v0d10v5__model.2 nmos
* DC IV MOS Parameters
+ lmin = 4e-06 lmax = 8e-06 wmin = 2.0e-05 wmax = 1.0e-4
+ level = 54.0
+ tnom = 30.0
+ version = 4.5
+ toxm = 1.16e-8
+ xj = 1.5e-7
+ lln = 1.0
+ lwn = 1.0
+ wln = 1.0
+ wwn = 1.0
+ lint = 7.6507e-8
+ ll = 0.0
+ lw = 0.0
+ lwl = 0.0
+ wint = 2.1346e-8
+ wl = 0.0
+ ww = 0.0
+ wwl = 0.0
+ xl = 0.0
+ xw = 0.0
+ mobmod = 0.0
+ binunit = 2.0
+ dwg = -4.1292e-9
+ dwb = -1.6944e-9
* BSIM4 - Model Selectors
+ igcmod = 0.0
+ igbmod = 0.0
+ rgatemod = 0.0
+ rbodymod = 1.0
+ trnqsmod = 0.0
+ acnqsmod = 0.0
+ fnoimod = 1.0
+ tnoimod = 1.0
+ permod = 1.0
+ geomod = 0.0
+ rdsmod = 0.0
+ tempmod = 0.0
+ lintnoi = 0.0
+ vfbsdoff = 0.0
+ lambda = 0.0
+ vtl = 0.0
+ lc = 5.0e-9
+ xn = 3.0
+ rnoia = 0.794
+ rnoib = 0.38
+ tnoia = 7.50e+6
+ tnoib = 7.2e+6
* BSIM4 - Process Parameters
+ epsrox = 3.9
+ toxe = {1.16e-08+sky130_fd_pr__nfet_g5v0d10v5__toxe_slope_spectre*(1.16e-08*(sky130_fd_pr__nfet_g5v0d10v5__toxe_slope3/sqrt(l*w*mult)))}
+ dtox = 0.0
+ ndep = 1.7000000000000000e+17
+ nsd = 1.0e+20
+ rshg = 0.1
+ rsh = 1.0
* Threshold Voltage Parameters
+ vth0 = {0.783224214191+sky130_fd_pr__nfet_g5v0d10v5__vth0_slope_spectre*(sky130_fd_pr__nfet_g5v0d10v5__vth0_slope/sqrt(l*w*mult))} lvth0 = 4.24583604922216e-8
+ k1 = 0.88325
+ k2 = -0.04100161561805 lk2 = 1.04727100702197e-8
+ k3 = -0.884
+ dvt0 = 0.0
+ dvt1 = 0.53
+ dvt2 = -0.19251
+ dvt0w = 0.16
+ dvt1w = 6909100.0
+ dvt2w = -0.036016
+ w0 = 0.0
+ k3b = 0.43
* NEW BSIM4 Parameters for Level 54
+ phin = 0.0
+ lpe0 = 2.5e-8
+ lpeb = -2.182e-7
+ vbm = -3.0
+ dvtp0 = 0.0
+ dvtp1 = 0.0
* Mobility Parameters
+ vsat = 110468.7325 lvsat = -0.037734056605245
+ ua = -1.0160370546575e-10 lua = 3.32403078041264e-16
+ ub = 1.752361942755e-18 lub = -2.79760295671284e-25
+ uc = 6.6204e-11
+ rdsw = 724.62
+ prwb = 0.05626
+ prwg = 0.048
+ wr = 1.0
+ u0 = 0.0415573116048 lu0 = 4.32281352469685e-9
+ a0 = 1.03361118331195 la0 = -7.14172112976905e-7
+ keta = -0.0172681619955 lketa = -3.17947160955794e-8
+ a1 = 0.0
+ a2 = 0.65972622
+ ags = 0.1520662575117 lags = -2.07824090159046e-8
+ b0 = 3.2933e-8
+ b1 = 0.0
* BSIM4 - Mobility Parameters
+ eu = 1.67
+ rdswmin = 0.0
+ rdw = 0.0
+ rdwmin = 0.0
+ rsw = 0.0
+ rswmin = 0.0
* Subthreshold Current Parameters
+ voff = {0.1862193+sky130_fd_pr__nfet_g5v0d10v5__voff_slope_spectre*(sky130_fd_pr__nfet_g5v0d10v5__voff_slope/sqrt(l*w*mult))} lvoff = -1.5093622642098e-06 wvoff = -2.11758236813575e-22 pvoff = -3.02922587604869e-27
+ nfactor = {-0.40199080207+sky130_fd_pr__nfet_g5v0d10v5__nfactor_slope_spectre*(sky130_fd_pr__nfet_g5v0d10v5__nfactor_slope/sqrt(l*w*mult))} lnfactor = 3.15441619597206e-6
+ up = 0.0
+ ud = 0.0
+ lp = 1.0
+ tvfbsdoff = 0.0
+ tvoff = 0.0
+ cit = -8.0e-4
+ cdsc = 0.0
+ cdscb = 0.0
+ cdscd = 0.0
+ eta0 = 0.032
+ etab = -0.01932
+ dsub = 0.504
* BSIM4 - Sub-threshold parameters
+ voffl = -4.2579486e-7
+ minv = 0.0
* Rout Parameters
+ pclm = 0.259908962315 lpclm = 5.81783684739667e-7
+ pdiblc1 = 0.21098
+ pdiblc2 = 2.0e-4
+ pdiblcb = -0.26831
+ drout = 0.36075
+ pscbe1 = 937310000.0
+ pscbe2 = 1.68e-6
+ pvag = 1.99
+ delta = 0.0246
+ alpha0 = 1.4467e-5
+ alpha1 = 0.0
+ beta0 = 21.4994591 lbeta0 = 1.96217094347274e-5
* BSIM4 - Rout Parameters
+ fprout = 10.125
+ pdits = 0.0
+ pditsl = 0.0
+ pditsd = 0.0
* BSIM4 - Gate Induced Drain Leakage Model Parameters
+ agidl = 7.7686843255e-12 lagidl = 4.47525911338206e-18
+ bgidl = 1058000000.0
+ cgidl = 4000.0
+ egidl = 0.8
* BSIM4 - Gate Leakage Current Parameters
+ aigbacc = 1.0
+ bigbacc = 0.0
+ cigbacc = 0.0
+ nigbacc = 1.0
+ aigbinv = 0.35
+ bigbinv = 0.03
+ cigbinv = 0.006
+ eigbinv = 1.1
+ nigbinv = 3.0
+ aigc = 0.43
+ bigc = 0.054
+ cigc = 0.075
+ nigc = 1.0
+ aigsd = 0.43
+ bigsd = 0.054
+ cigsd = 0.075
+ dlcig = 0.0
+ poxedge = 1.0
+ pigcd = 1.0
+ ntox = 1.0
+ toxref = 1.16e-8
* Temperature Effects Parameters
+ kt1 = -0.433506812257246 lkt1 = 2.41501517878254e-7
+ kt2 = -0.019151
+ at = 236939.72 lat = -0.60374490568392
+ ute = -1.33706986 lute = 3.0187245284196e-7
+ ua1 = 3.0044e-9
+ ub1 = -3.7525e-18
+ uc1 = -5.9821e-11
+ kt1l = 0.0
+ prt = 0.0
* BSIM4 - High Speed RF Model Parameters
+ xrcrg1 = 12.0
+ xrcrg2 = 1.0
+ rbpb = 50.0
+ rbpd = 50.0
+ rbps = 50.0
+ rbdb = 50.0
+ rbsb = 50.0
+ gbmin = 1.0e-12
* BSIM4 - Flicker and Thermal Noise Parameters
+ noia = 2.6e+41
+ noib = 0.0
+ noic = 0.0
+ em = 41000000.0
+ af = 1.0
+ ef = 0.89
+ kf = 0.0
+ ntnoi = 1.0
* BSIM4 - Layout Dependent Parasitic Model Parameters
+ dmcg = 0.0
+ dmcgt = 0.0
+ dmdg = 0.0
+ xgw = 0.0
+ xgl = 0.0
+ ngcon = 1.0
* Diode DC IV Parameters
* BSIM4 - Diode DC IV parameters
+ diomod = 1.0
+ njs = 1.0773
+ jss = 0.000375
+ jsws = 5.84e-11
+ xtis = 0.76
+ bvs = 12.636
+ xjbvs = 1.0
+ ijthsrev = 0.1
+ ijthsfwd = 0.1
* Diode and FET Capacitance Parameters
+ tpb = 0.001344
+ tpbsw = 0.00099005
+ tpbswg = 0.0
+ tcj = 0.00067434
+ tcjsw = 0.0002493
+ tcjswg = 0.0
+ cgdo = 2.75467857e-10
+ cgso = 2.75467857e-10
+ cgbo = 0.0
+ capmod = 2.0
+ xpart = 0.0
+ cgsl = 4.49025e-11
+ cgdl = 4.49025e-11
+ cf = 0.0
+ clc = 1.0e-7
+ cle = 0.6
+ dlc = 6.5995e-8
+ dwc = 0.0
+ vfbcv = -1.0
+ acde = 0.4176
+ moin = 15.0
+ noff = 4.0
+ voffcv = -0.4104
+ ngate = 1.0e+23
+ lwc = 0.0
+ llc = 0.0
+ lwlc = 0.0
+ wlc = 0.0
+ wwc = 0.0
+ wwlc = 0.0
* BSIM4 - FET and Diode capacitance parameters
+ ckappas = 0.6
+ cjs = 0.00084698656
+ mjs = 0.295
+ pbs = 0.72468
+ cjsws = 8.64309376e-11
+ mjsws = 0.037586
+ pbsws = 0.29067
+ cjswgs = 5.47776e-11
+ mjswgs = 0.78692
+ pbswgs = 0.54958
* Stress Parameters
+ saref = 3.0e-6
+ sbref = 3.0e-6
+ wlod = {0+sky130_fd_pr__nfet_g5v0d10v5__wlod_diff}
+ kvth0 = {0+sky130_fd_pr__nfet_g5v0d10v5__kvth0_diff}
+ lkvth0 = {0+sky130_fd_pr__nfet_g5v0d10v5__lkvth0_diff}
+ wkvth0 = {0+sky130_fd_pr__nfet_g5v0d10v5__wkvth0_diff}
+ pkvth0 = 0.0
+ llodvth = 0.0
+ wlodvth = 1.0
+ stk2 = 0.0
+ lodk2 = 1.0
+ lodeta0 = 1.0
+ ku0 = {0+sky130_fd_pr__nfet_g5v0d10v5__ku0_diff}
+ lku0 = {0+sky130_fd_pr__nfet_g5v0d10v5__lku0_diff}
+ wku0 = {0+sky130_fd_pr__nfet_g5v0d10v5__wku0_diff}
+ pku0 = 0.0
+ llodku0 = 0.0
+ wlodku0 = 1.0
+ kvsat = {0+sky130_fd_pr__nfet_g5v0d10v5__kvsat_diff}
+ steta0 = 0.0
+ tku0 = 0.0
.model sky130_fd_pr__nfet_g5v0d10v5__model.3 nmos
* DC IV MOS Parameters
+ lmin = 2e-06 lmax = 4e-06 wmin = 2.0e-05 wmax = 1.0e-4
+ level = 54.0
+ tnom = 30.0
+ version = 4.5
+ toxm = 1.16e-8
+ xj = 1.5e-7
+ lln = 1.0
+ lwn = 1.0
+ wln = 1.0
+ wwn = 1.0
+ lint = 7.6507e-8
+ ll = 0.0
+ lw = 0.0
+ lwl = 0.0
+ wint = 2.1346e-8
+ wl = 0.0
+ ww = 0.0
+ wwl = 0.0
+ xl = 0.0
+ xw = 0.0
+ mobmod = 0.0
+ binunit = 2.0
+ dwg = -4.1292e-9
+ dwb = -1.6944e-9
* BSIM4 - Model Selectors
+ igcmod = 0.0
+ igbmod = 0.0
+ rgatemod = 0.0
+ rbodymod = 1.0
+ trnqsmod = 0.0
+ acnqsmod = 0.0
+ fnoimod = 1.0
+ tnoimod = 1.0
+ permod = 1.0
+ geomod = 0.0
+ rdsmod = 0.0
+ tempmod = 0.0
+ lintnoi = 0.0
+ vfbsdoff = 0.0
+ lambda = 0.0
+ vtl = 0.0
+ lc = 5.0e-9
+ xn = 3.0
+ rnoia = 0.794
+ rnoib = 0.38
+ tnoia = 7.50e+6
+ tnoib = 7.2e+6
* BSIM4 - Process Parameters
+ epsrox = 3.9
+ toxe = {1.16e-08+sky130_fd_pr__nfet_g5v0d10v5__toxe_slope_spectre*(1.16e-08*(sky130_fd_pr__nfet_g5v0d10v5__toxe_slope/sqrt(l*w*mult)))}
+ dtox = 0.0
+ ndep = 1.7000000000000000e+17
+ nsd = 1.0e+20
+ rshg = 0.1
+ rsh = 1.0
* Threshold Voltage Parameters
+ vth0 = {0.798976355258+sky130_fd_pr__nfet_g5v0d10v5__vth0_slope_spectre*(sky130_fd_pr__nfet_g5v0d10v5__vth0_slope/sqrt(l*w*mult))} lvth0 = -1.81399056625522e-8
+ k1 = 0.88325
+ k2 = -0.0425688326357 lk2 = 1.6501771996081e-8
+ k3 = -0.884
+ dvt0 = 0.0
+ dvt1 = 0.53
+ dvt2 = -0.19251
+ dvt0w = 0.16
+ dvt1w = 6909100.0
+ dvt2w = -0.036016
+ w0 = 0.0
+ k3b = 0.43
* NEW BSIM4 Parameters for Level 54
+ phin = 0.0
+ lpe0 = 2.5e-8
+ lpeb = -2.182e-7
+ vbm = -3.0
+ dvtp0 = 0.0
+ dvtp1 = 0.0
* Mobility Parameters
+ vsat = 93779.97715 lvsat = 0.0264673515836301
+ ua = 1.059936792802e-10 lua = -4.6622115471302e-16 pua = -5.64237288394698e-37
+ ub = 1.54968606504e-18 lub = 4.99930968436031e-25
+ uc = 6.6204e-11
+ rdsw = 724.62
+ prwb = 0.05626
+ prwg = 0.048
+ wr = 1.0
+ u0 = 0.0427638373221 lu0 = -3.18674018396179e-10
+ a0 = 0.4765335596815 la0 = 1.42889770604271e-6
+ keta = -0.039268111389 lketa = 5.28387812219236e-8
+ a1 = 0.0
+ a2 = 0.65972622
+ ags = 0.119434808895 lags = 1.04750316972259e-7
+ b0 = 3.2933e-8
+ b1 = 0.0
* BSIM4 - Mobility Parameters
+ eu = 1.67
+ rdswmin = 0.0
+ rdw = 0.0
+ rdwmin = 0.0
+ rsw = 0.0
+ rswmin = 0.0
* Subthreshold Current Parameters
+ voff = {-0.20613+sky130_fd_pr__nfet_g5v0d10v5__voff_slope_spectre*(sky130_fd_pr__nfet_g5v0d10v5__voff_slope/sqrt(l*w*mult))}
+ nfactor = {0.315477817958+sky130_fd_pr__nfet_g5v0d10v5__nfactor_slope_spectre*(sky130_fd_pr__nfet_g5v0d10v5__nfactor_slope/sqrt(l*w*mult))} lnfactor = 3.94324459285026e-7
+ up = 0.0
+ ud = 0.0
+ lp = 1.0
+ tvfbsdoff = 0.0
+ tvoff = 0.0
+ cit = -8.0e-4
+ cdsc = 0.0
+ cdscb = 0.0
+ cdscd = 0.0
+ eta0 = 0.032
+ etab = -0.01932
+ dsub = 0.504
* BSIM4 - Sub-threshold parameters
+ voffl = -4.2579486e-7
+ minv = 0.0
* Rout Parameters
+ pclm = 0.60098245601 lpclm = -7.30321270476086e-7
+ pdiblc1 = 0.21098
+ pdiblc2 = 2.0e-4
+ pdiblcb = -0.26831
+ drout = 0.36075
+ pscbe1 = 937310000.0
+ pscbe2 = 1.68e-6
+ pvag = 1.99
+ delta = 0.0246
+ alpha0 = 1.4467e-5
+ alpha1 = 0.0
+ beta0 = 23.859072776 lbeta0 = 1.05443086577469e-5
* BSIM4 - Rout Parameters
+ fprout = 10.125
+ pdits = 0.0
+ pditsl = 0.0
+ pditsd = 0.0
* BSIM4 - Gate Induced Drain Leakage Model Parameters
+ agidl = 1.1252737909e-11 lagidl = -8.92784624559227e-18
+ bgidl = 1058000000.0
+ cgidl = 4000.0
+ egidl = 0.8
* BSIM4 - Gate Leakage Current Parameters
+ aigbacc = 1.0
+ bigbacc = 0.0
+ cigbacc = 0.0
+ nigbacc = 1.0
+ aigbinv = 0.35
+ bigbinv = 0.03
+ cigbinv = 0.006
+ eigbinv = 1.1
+ nigbinv = 3.0
+ aigc = 0.43
+ bigc = 0.054
+ cigc = 0.075
+ nigc = 1.0
+ aigsd = 0.43
+ bigsd = 0.054
+ cigsd = 0.075
+ dlcig = 0.0
+ poxedge = 1.0
+ pigcd = 1.0
+ ntox = 1.0
+ toxref = 1.16e-8
* Temperature Effects Parameters
+ kt1 = -0.384237932111 lkt1 = 5.19648257199673e-8
+ kt2 = -0.019151
+ at = 139103.552 lat = -0.227370537094272
+ ute = -1.22166028 lute = -1.42106585683921e-7
+ ua1 = 3.0044e-9
+ ub1 = -3.7525e-18
+ uc1 = -5.9821e-11
+ kt1l = 0.0
+ prt = 0.0
* BSIM4 - High Speed RF Model Parameters
+ xrcrg1 = 12.0
+ xrcrg2 = 1.0
+ rbpb = 50.0
+ rbpd = 50.0
+ rbps = 50.0
+ rbdb = 50.0
+ rbsb = 50.0
+ gbmin = 1.0e-12
* BSIM4 - Flicker and Thermal Noise Parameters
+ noia = 2.6e+41
+ noib = 0.0
+ noic = 0.0
+ em = 41000000.0
+ af = 1.0
+ ef = 0.89
+ kf = 0.0
+ ntnoi = 1.0
* BSIM4 - Layout Dependent Parasitic Model Parameters
+ dmcg = 0.0
+ dmcgt = 0.0
+ dmdg = 0.0
+ xgw = 0.0
+ xgl = 0.0
+ ngcon = 1.0
* Diode DC IV Parameters
* BSIM4 - Diode DC IV parameters
+ diomod = 1.0
+ njs = 1.0773
+ jss = 0.000375
+ jsws = 5.84e-11
+ xtis = 0.76
+ bvs = 12.636
+ xjbvs = 1.0
+ ijthsrev = 0.1
+ ijthsfwd = 0.1
* Diode and FET Capacitance Parameters
+ tpb = 0.001344
+ tpbsw = 0.00099005
+ tpbswg = 0.0
+ tcj = 0.00067434
+ tcjsw = 0.0002493
+ tcjswg = 0.0
+ cgdo = 2.75467857e-10
+ cgso = 2.75467857e-10
+ cgbo = 0.0
+ capmod = 2.0
+ xpart = 0.0
+ cgsl = 4.49025e-11
+ cgdl = 4.49025e-11
+ cf = 0.0
+ clc = 1.0e-7
+ cle = 0.6
+ dlc = 6.5995e-8
+ dwc = 0.0
+ vfbcv = -1.0
+ acde = 0.4176
+ moin = 15.0
+ noff = 4.0
+ voffcv = -0.4104
+ ngate = 1.0e+23
+ lwc = 0.0
+ llc = 0.0
+ lwlc = 0.0
+ wlc = 0.0
+ wwc = 0.0
+ wwlc = 0.0
* BSIM4 - FET and Diode capacitance parameters
+ ckappas = 0.6
+ cjs = 0.00084698656
+ mjs = 0.295
+ pbs = 0.72468
+ cjsws = 8.64309376e-11
+ mjsws = 0.037586
+ pbsws = 0.29067
+ cjswgs = 5.47776e-11
+ mjswgs = 0.78692
+ pbswgs = 0.54958
* Stress Parameters
+ saref = 3.0e-6
+ sbref = 3.0e-6
+ wlod = {0+sky130_fd_pr__nfet_g5v0d10v5__wlod_diff}
+ kvth0 = {0+sky130_fd_pr__nfet_g5v0d10v5__kvth0_diff}
+ lkvth0 = {0+sky130_fd_pr__nfet_g5v0d10v5__lkvth0_diff}
+ wkvth0 = {0+sky130_fd_pr__nfet_g5v0d10v5__wkvth0_diff}
+ pkvth0 = 0.0
+ llodvth = 0.0
+ wlodvth = 1.0
+ stk2 = 0.0
+ lodk2 = 1.0
+ lodeta0 = 1.0
+ ku0 = {0+sky130_fd_pr__nfet_g5v0d10v5__ku0_diff}
+ lku0 = {0+sky130_fd_pr__nfet_g5v0d10v5__lku0_diff}
+ wku0 = {0+sky130_fd_pr__nfet_g5v0d10v5__wku0_diff}
+ pku0 = 0.0
+ llodku0 = 0.0
+ wlodku0 = 1.0
+ kvsat = {0+sky130_fd_pr__nfet_g5v0d10v5__kvsat_diff}
+ steta0 = 0.0
+ tku0 = 0.0
.model sky130_fd_pr__nfet_g5v0d10v5__model.4 nmos
* DC IV MOS Parameters
+ lmin = 1e-06 lmax = 2e-06 wmin = 2.0e-05 wmax = 1.0e-4
+ level = 54.0
+ tnom = 30.0
+ version = 4.5
+ toxm = 1.16e-8
+ xj = 1.5e-7
+ lln = 1.0
+ lwn = 1.0
+ wln = 1.0
+ wwn = 1.0
+ lint = 7.6507e-8
+ ll = 0.0
+ lw = 0.0
+ lwl = 0.0
+ wint = 2.1346e-8
+ wl = 0.0
+ ww = 0.0
+ wwl = 0.0
+ xl = 0.0
+ xw = 0.0
+ mobmod = 0.0
+ binunit = 2.0
+ dwg = -4.1292e-9
+ dwb = -1.6944e-9
* BSIM4 - Model Selectors
+ igcmod = 0.0
+ igbmod = 0.0
+ rgatemod = 0.0
+ rbodymod = 1.0
+ trnqsmod = 0.0
+ acnqsmod = 0.0
+ fnoimod = 1.0
+ tnoimod = 1.0
+ permod = 1.0
+ geomod = 0.0
+ rdsmod = 0.0
+ tempmod = 0.0
+ lintnoi = 0.0
+ vfbsdoff = 0.0
+ lambda = 0.0
+ vtl = 0.0
+ lc = 5.0e-9
+ xn = 3.0
+ rnoia = 0.794
+ rnoib = 0.38
+ tnoia = 7.50e+6
+ tnoib = 7.2e+6
* BSIM4 - Process Parameters
+ epsrox = 3.9
+ toxe = {1.16e-08+sky130_fd_pr__nfet_g5v0d10v5__toxe_slope_spectre*(1.16e-08*(sky130_fd_pr__nfet_g5v0d10v5__toxe_slope/sqrt(l*w*mult)))}
+ dtox = 0.0
+ ndep = 1.7000000000000000e+17
+ nsd = 1.0e+20
+ rshg = 0.1
+ rsh = 1.0
* Threshold Voltage Parameters
+ vth0 = {0.77896152349+sky130_fd_pr__nfet_g5v0d10v5__vth0_slope_spectre*(sky130_fd_pr__nfet_g5v0d10v5__vth0_slope/sqrt(l*w*mult))} lvth0 = 1.88272084052989e-8
+ k1 = 0.88325
+ k2 = -0.040704192142 lk2 = 1.3057807109184e-8
+ k3 = -0.884
+ dvt0 = 0.0
+ dvt1 = 0.53
+ dvt2 = -0.19251
+ dvt0w = 0.16
+ dvt1w = 6909100.0
+ dvt2w = -0.036016
+ w0 = 0.0
+ k3b = 0.43
* NEW BSIM4 Parameters for Level 54
+ phin = 0.0
+ lpe0 = 2.5e-8
+ lpeb = -2.182e-7
+ vbm = -3.0
+ dvtp0 = 0.0
+ dvtp1 = 0.0
* Mobility Parameters
+ vsat = 119885.646358 lvsat = -0.021749453964177
+ ua = -1.424027673504e-10 lua = -7.43639533655408e-18
+ ub = 1.763188445e-18 lub = 1.05595061683231e-25
+ uc = 6.6204e-11
+ rdsw = 724.62
+ prwb = 0.05626
+ prwg = 0.048
+ wr = 1.0
+ u0 = 0.0411635356998 lu0 = 2.6370606737692e-9
+ a0 = 1.7025972264586 la0 = -8.35624721603264e-7
+ keta = 0.003322044888 lketa = -2.58246411595076e-08 pketa = -5.04870979341448e-29
+ a1 = 0.0
+ a2 = 0.65972622
+ ags = 0.152949206474 lags = 4.28496938454126e-8
+ b0 = 3.2933e-8
+ b1 = 0.0
* BSIM4 - Mobility Parameters
+ eu = 1.67
+ rdswmin = 0.0
+ rdw = 0.0
+ rdwmin = 0.0
+ rsw = 0.0
+ rswmin = 0.0
* Subthreshold Current Parameters
+ voff = {-0.20613+sky130_fd_pr__nfet_g5v0d10v5__voff_slope_spectre*(sky130_fd_pr__nfet_g5v0d10v5__voff_slope/sqrt(l*w*mult))}
+ nfactor = {0.813302118284+sky130_fd_pr__nfet_g5v0d10v5__nfactor_slope_spectre*(sky130_fd_pr__nfet_g5v0d10v5__nfactor_slope/sqrt(l*w*mult))} lnfactor = -5.25150053876892e-7
+ up = 0.0
+ ud = 0.0
+ lp = 1.0
+ tvfbsdoff = 0.0
+ tvoff = 0.0
+ cit = -8.0e-4
+ cdsc = 0.0
+ cdscb = 0.0
+ cdscd = 0.0
+ eta0 = 0.032
+ etab = -0.01932
+ dsub = 0.504
* BSIM4 - Sub-threshold parameters
+ voffl = -4.2579486e-7
+ minv = 0.0
* Rout Parameters
+ pclm = 0.0967492387200001 lpclm = 2.00990422593502e-7
+ pdiblc1 = 0.21098
+ pdiblc2 = 2.0e-4
+ pdiblcb = -0.26831
+ drout = 0.36075
+ pscbe1 = 937310000.0
+ pscbe2 = 1.68e-6
+ pvag = 1.99
+ delta = 0.0246
+ alpha0 = 1.4467e-5
+ alpha1 = 0.0
+ beta0 = 27.084637048 lbeta0 = 4.58673660526266e-6
* BSIM4 - Rout Parameters
+ fprout = 10.125
+ pdits = 0.0
+ pditsl = 0.0
+ pditsd = 0.0
* BSIM4 - Gate Induced Drain Leakage Model Parameters
+ agidl = 9.07853604e-12 lagidl = -4.91212583237544e-18
+ bgidl = 1058000000.0
+ cgidl = 4000.0
+ egidl = 0.8
* BSIM4 - Gate Leakage Current Parameters
+ aigbacc = 1.0
+ bigbacc = 0.0
+ cigbacc = 0.0
+ nigbacc = 1.0
+ aigbinv = 0.35
+ bigbinv = 0.03
+ cigbinv = 0.006
+ eigbinv = 1.1
+ nigbinv = 3.0
+ aigc = 0.43
+ bigc = 0.054
+ cigc = 0.075
+ nigc = 1.0
+ aigsd = 0.43
+ bigsd = 0.054
+ cigsd = 0.075
+ dlcig = 0.0
+ poxedge = 1.0
+ pigcd = 1.0
+ ntox = 1.0
+ toxref = 1.16e-8
* Temperature Effects Parameters
+ kt1 = -0.468602221478 lkt1 = 2.07784487080765e-7
+ kt2 = -0.019151
+ at = 9224.11200000001 lat = 0.012514970273568
+ ute = -1.2986
+ ua1 = 3.0044e-9
+ ub1 = -4.0067651972e-18 lub1 = 4.69624259515638e-25
+ uc1 = -5.9821e-11
+ kt1l = 0.0
+ prt = 0.0
* BSIM4 - High Speed RF Model Parameters
+ xrcrg1 = 12.0
+ xrcrg2 = 1.0
+ rbpb = 50.0
+ rbpd = 50.0
+ rbps = 50.0
+ rbdb = 50.0
+ rbsb = 50.0
+ gbmin = 1.0e-12
* BSIM4 - Flicker and Thermal Noise Parameters
+ noia = 2.6e+41
+ noib = 0.0
+ noic = 0.0
+ em = 41000000.0
+ af = 1.0
+ ef = 0.89
+ kf = 0.0
+ ntnoi = 1.0
* BSIM4 - Layout Dependent Parasitic Model Parameters
+ dmcg = 0.0
+ dmcgt = 0.0
+ dmdg = 0.0
+ xgw = 0.0
+ xgl = 0.0
+ ngcon = 1.0
* Diode DC IV Parameters
* BSIM4 - Diode DC IV parameters
+ diomod = 1.0
+ njs = 1.0773
+ jss = 0.000375
+ jsws = 5.84e-11
+ xtis = 0.76
+ bvs = 12.636
+ xjbvs = 1.0
+ ijthsrev = 0.1
+ ijthsfwd = 0.1
* Diode and FET Capacitance Parameters
+ tpb = 0.001344
+ tpbsw = 0.00099005
+ tpbswg = 0.0
+ tcj = 0.00067434
+ tcjsw = 0.0002493
+ tcjswg = 0.0
+ cgdo = 2.75467857e-10
+ cgso = 2.75467857e-10
+ cgbo = 0.0
+ capmod = 2.0
+ xpart = 0.0
+ cgsl = 4.49025e-11
+ cgdl = 4.49025e-11
+ cf = 0.0
+ clc = 1.0e-7
+ cle = 0.6
+ dlc = 6.5995e-8
+ dwc = 0.0
+ vfbcv = -1.0