* Copyright 2020 The SkyWater PDK Authors
*
* Licensed under the Apache License, Version 2.0 (the "License");
* you may not use this file except in compliance with the License.
* You may obtain a copy of the License at
*
*     https://www.apache.org/licenses/LICENSE-2.0
*
* Unless required by applicable law or agreed to in writing, software
* distributed under the License is distributed on an "AS IS" BASIS,
* WITHOUT WARRANTIES OR CONDITIONS OF ANY KIND, either express or implied.
* See the License for the specific language governing permissions and
* limitations under the License.

* SKY130 Spice File.
.param sky130_fd_pr__nfet_g5v0d10v5__toxe_slope_spectre = 0.0
.param sky130_fd_pr__nfet_g5v0d10v5__vth0_slope_spectre = 0.0
.param sky130_fd_pr__nfet_g5v0d10v5__voff_slope_spectre = 0.0
.param sky130_fd_pr__nfet_g5v0d10v5__nfactor_slope_spectre = 0.0
* statistics {
*   process {
*   }
*   mismatch {
*     vary sky130_fd_pr__nfet_g5v0d10v5__toxe_slope_spectre dist=gauss std = 1.0
*     vary sky130_fd_pr__nfet_g5v0d10v5__vth0_slope_spectre dist=gauss std = 1.0
*     vary sky130_fd_pr__nfet_g5v0d10v5__voff_slope_spectre dist=gauss std = 1.0
*     vary sky130_fd_pr__nfet_g5v0d10v5__nfactor_slope_spectre dist=gauss std = 1.0
*   }
* }
.subckt  sky130_fd_pr__nfet_g5v0d10v5 d g s b
+ 
.param  l = 1 w = 1 ad = 0 as = 0 pd = 0 ps = 0 nrd = 0 nrs = 0 sa = 0 sb = 0 sd = 0 mult = 1 nf = 1.0
msky130_fd_pr__nfet_g5v0d10v5 d g s b sky130_fd_pr__nfet_g5v0d10v5__model l = {l} w = {w} ad = {ad} as = {as} pd = {pd} ps = {ps} nrd = {nrd} nrs = {nrs} sa = {sa} sb = {sb} sd = {sd} nf = {nf}
.model sky130_fd_pr__nfet_g5v0d10v5__model.0 nmos
* DC IV MOS Parameters
+ lmin = 2.0e-05 lmax = 1.0e-04 wmin = 2.0e-05 wmax = 1.0e-4
+ level = 54.0
+ tnom = 30.0
+ version = 4.5
+ toxm = 1.16e-8
+ xj = 1.5e-7
+ lln = 1.0
+ lwn = 1.0
+ wln = 1.0
+ wwn = 1.0
+ lint = 9.3832e-8
+ ll = 0.0
+ lw = 0.0
+ lwl = 0.0
+ wint = -1.0829e-8
+ wl = 0.0
+ ww = 0.0
+ wwl = 0.0
+ xl = 0.0
+ xw = 0.0
+ mobmod = 0.0
+ binunit = 2.0
+ dwg = -4.1292e-9
+ dwb = -1.6944e-9
* BSIM4 - Model Selectors
+ igcmod = 0.0
+ igbmod = 0.0
+ rgatemod = 0.0
+ rbodymod = 1.0
+ trnqsmod = 0.0
+ acnqsmod = 0.0
+ fnoimod = 1.0
+ tnoimod = 1.0
+ permod = 1.0
+ geomod = 0.0
+ rdsmod = 0.0
+ tempmod = 0.0
+ lintnoi = 0.0
+ vfbsdoff = 0.0
+ lambda = 0.0
+ vtl = 0.0
+ lc = 5.0e-9
+ xn = 3.0
+ rnoia = 0.794
+ rnoib = 0.38
+ tnoia = 7.50e+6
+ tnoib = 7.2e+6
* BSIM4 - Process Parameters
+ epsrox = 3.9
+ toxe = {1.0904e-08+sky130_fd_pr__nfet_g5v0d10v5__toxe_slope_spectre*(1.2296e-08*(sky130_fd_pr__nfet_g5v0d10v5__toxe_slope/sqrt(l*w*mult)))}
+ dtox = 0.0
+ ndep = 1.7000000000000000e+17
+ nsd = 1.0e+20
+ rshg = 0.1
+ rsh = 1.0
* Threshold Voltage Parameters
+ vth0 = {0.793646+sky130_fd_pr__nfet_g5v0d10v5__vth0_slope_spectre*(sky130_fd_pr__nfet_g5v0d10v5__vth0_slope/sqrt(l*w*mult))}
+ k1 = 0.88325
+ k2 = -0.0384371
+ k3 = -0.884
+ dvt0 = 0.0
+ dvt1 = 0.53
+ dvt2 = -0.19251
+ dvt0w = 0.16
+ dvt1w = 6909100.0
+ dvt2w = -0.036016
+ w0 = 0.0
+ k3b = 0.43
* NEW BSIM4 Parameters for Level 54
+ phin = 0.0
+ lpe0 = 2.5e-8
+ lpeb = -2.182e-7
+ vbm = -3.0
+ dvtp0 = 0.0
+ dvtp1 = 0.0
* Mobility Parameters
+ vsat = 105660.0
+ ua = -5.84299e-11
+ ub = 1.6951e-18
+ uc = 6.6204e-11
+ rdsw = 724.62
+ prwb = 0.05626
+ prwg = 0.048
+ wr = 1.0
+ u0 = 0.0418565
+ a0 = 0.94501626
+ keta = -0.02132
+ a1 = 0.0
+ a2 = 0.65972622
+ ags = 0.1410462
+ b0 = 3.2933e-8
+ b1 = 0.0
* BSIM4 - Mobility Parameters
+ eu = 1.67
+ rdswmin = 0.0
+ rdw = 0.0
+ rdwmin = 0.0
+ rsw = 0.0
+ rswmin = 0.0
* Subthreshold Current Parameters
+ voff = {-0.20613+sky130_fd_pr__nfet_g5v0d10v5__voff_slope_spectre*(sky130_fd_pr__nfet_g5v0d10v5__voff_slope/sqrt(l*w*mult))}
+ nfactor = {1.53573+sky130_fd_pr__nfet_g5v0d10v5__nfactor_slope_spectre*(sky130_fd_pr__nfet_g5v0d10v5__nfactor_slope/sqrt(l*w*mult))}
+ up = 0.0
+ ud = 0.0
+ lp = 1.0
+ tvfbsdoff = 0.0
+ tvoff = 0.0
+ cit = -8.0e-4
+ cdsc = 0.0
+ cdscb = 0.0
+ cdscd = 0.0
+ eta0 = 0.032
+ etab = -0.01932
+ dsub = 0.504
* BSIM4 - Sub-threshold parameters
+ voffl = -4.2579486e-7
+ minv = 0.0
* Rout Parameters
+ pclm = 0.33405
+ pdiblc1 = 0.21098
+ pdiblc2 = 2.0e-4
+ pdiblcb = -0.26831
+ drout = 0.36075
+ pscbe1 = 937310000.0
+ pscbe2 = 1.68e-6
+ pvag = 1.99
+ delta = 0.0246
+ alpha0 = 1.4467e-5
+ alpha1 = 0.0
+ beta0 = 24.0
* BSIM4 - Rout Parameters
+ fprout = 10.125
+ pdits = 0.0
+ pditsl = 0.0
+ pditsd = 0.0
* BSIM4 - Gate Induced Drain Leakage Model Parameters
+ agidl = 3.7316e-11
+ bgidl = 1058000000.0
+ cgidl = 4000.0
+ egidl = 0.8
* BSIM4 - Gate Leakage Current Parameters
+ aigbacc = 1.0
+ bigbacc = 0.0
+ cigbacc = 0.0
+ nigbacc = 1.0
+ aigbinv = 0.35
+ bigbinv = 0.03
+ cigbinv = 0.006
+ eigbinv = 1.1
+ nigbinv = 3.0
+ aigc = 0.43
+ bigc = 0.054
+ cigc = 0.075
+ nigc = 1.0
+ aigsd = 0.43
+ bigsd = 0.054
+ cigsd = 0.075
+ dlcig = 0.0
+ poxedge = 1.0
+ pigcd = 1.0
+ ntox = 1.0
+ toxref = 1.16e-8
* Temperature Effects Parameters
+ kt1 = -0.74079
+ kt2 = -0.019151
+ at = 160000.0
+ ute = -1.2986
+ ua1 = 3.0044e-9
+ ub1 = -3.7525e-18
+ uc1 = -5.9821e-11
+ kt1l = 0.0
+ prt = 0.0
* BSIM4 - High Speed RF Model Parameters
+ xrcrg1 = 12.0
+ xrcrg2 = 1.0
+ rbpb = 50.0
+ rbpd = 50.0
+ rbps = 50.0
+ rbdb = 50.0
+ rbsb = 50.0
+ gbmin = 1.0e-12
* BSIM4 - Flicker and Thermal Noise Parameters
+ noia = 2.6e+41
+ noib = 0.0
+ noic = 0.0
+ em = 41000000.0
+ af = 1.0
+ ef = 0.89
+ kf = 0.0
+ ntnoi = 1.0
* BSIM4 - Layout Dependent Parasitic Model Parameters
+ dmcg = 0.0
+ dmcgt = 0.0
+ dmdg = 0.0
+ xgw = 0.0
+ xgl = 0.0
+ ngcon = 1.0
* Diode DC IV Parameters
* BSIM4 - Diode DC IV parameters
+ diomod = 1.0
+ njs = 1.0773
+ jss = 0.000375
+ jsws = 5.84e-11
+ xtis = 0.76
+ bvs = 12.636
+ xjbvs = 1.0
+ ijthsrev = 0.1
+ ijthsfwd = 0.1
* Diode and FET Capacitance Parameters
+ tpb = 0.001344
+ tpbsw = 0.00099005
+ tpbswg = 0.0
+ tcj = 0.00067434
+ tcjsw = 0.0002493
+ tcjswg = 0.0
+ cgdo = 2.338769804e-10
+ cgso = 2.338769804e-10
+ cgbo = 0.0
+ capmod = 2.0
+ xpart = 0.0
+ cgsl = 3.8123e-11
+ cgdl = 3.8123e-11
+ cf = 0.0
+ clc = 1.0e-7
+ cle = 0.6
+ dlc = 8.332e-8
+ dwc = -3.2175e-8
+ vfbcv = -1.0
+ acde = 0.4176
+ moin = 15.0
+ noff = 4.0
+ voffcv = -0.4104
+ ngate = 1.0e+23
+ lwc = 0.0
+ llc = 0.0
+ lwlc = 0.0
+ wlc = 0.0
+ wwc = 0.0
+ wwlc = 0.0
* BSIM4 - FET and Diode capacitance parameters
+ ckappas = 0.6
+ cjs = 0.000695881536
+ mjs = 0.295
+ pbs = 0.72468
+ cjsws = 6.627678344e-11
+ mjsws = 0.037586
+ pbsws = 0.29067
+ cjswgs = 4.200444e-11
+ mjswgs = 0.78692
+ pbswgs = 0.54958
* Stress Parameters
+ saref = 3.0e-6
+ sbref = 3.0e-6
+ wlod = {0+sky130_fd_pr__nfet_g5v0d10v5__wlod_diff}
+ kvth0 = {0+sky130_fd_pr__nfet_g5v0d10v5__kvth0_diff}
+ lkvth0 = {0+sky130_fd_pr__nfet_g5v0d10v5__lkvth0_diff}
+ wkvth0 = {0+sky130_fd_pr__nfet_g5v0d10v5__wkvth0_diff}
+ pkvth0 = 0.0
+ llodvth = 0.0
+ wlodvth = 1.0
+ stk2 = 0.0
+ lodk2 = 1.0
+ lodeta0 = 1.0
+ ku0 = {0+sky130_fd_pr__nfet_g5v0d10v5__ku0_diff}
+ lku0 = {0+sky130_fd_pr__nfet_g5v0d10v5__lku0_diff}
+ wku0 = {0+sky130_fd_pr__nfet_g5v0d10v5__wku0_diff}
+ pku0 = 0.0
+ llodku0 = 0.0
+ wlodku0 = 1.0
+ kvsat = {0+sky130_fd_pr__nfet_g5v0d10v5__kvsat_diff}
+ steta0 = 0.0
+ tku0 = 0.0
.model sky130_fd_pr__nfet_g5v0d10v5__model.1 nmos
* DC IV MOS Parameters
+ lmin = 8e-06 lmax = 2.0e-05 wmin = 2.0e-05 wmax = 1.0e-4
+ level = 54.0
+ tnom = 30.0
+ version = 4.5
+ toxm = 1.16e-8
+ xj = 1.5e-7
+ lln = 1.0
+ lwn = 1.0
+ wln = 1.0
+ wwn = 1.0
+ lint = 9.3832e-8
+ ll = 0.0
+ lw = 0.0
+ lwl = 0.0
+ wint = -1.0829e-8
+ wl = 0.0
+ ww = 0.0
+ wwl = 0.0
+ xl = 0.0
+ xw = 0.0
+ mobmod = 0.0
+ binunit = 2.0
+ dwg = -4.1292e-9
+ dwb = -1.6944e-9
* BSIM4 - Model Selectors
+ igcmod = 0.0
+ igbmod = 0.0
+ rgatemod = 0.0
+ rbodymod = 1.0
+ trnqsmod = 0.0
+ acnqsmod = 0.0
+ fnoimod = 1.0
+ tnoimod = 1.0
+ permod = 1.0
+ geomod = 0.0
+ rdsmod = 0.0
+ tempmod = 0.0
+ lintnoi = 0.0
+ vfbsdoff = 0.0
+ lambda = 0.0
+ vtl = 0.0
+ lc = 5.0e-9
+ xn = 3.0
+ rnoia = 0.794
+ rnoib = 0.38
+ tnoia = 7.50e+6
+ tnoib = 7.2e+6
* BSIM4 - Process Parameters
+ epsrox = 3.9
+ toxe = {1.0904e-08+sky130_fd_pr__nfet_g5v0d10v5__toxe_slope_spectre*(1.2296e-08*(sky130_fd_pr__nfet_g5v0d10v5__toxe_slope/sqrt(l*w*mult)))}
+ dtox = 0.0
+ ndep = 1.7000000000000000e+17
+ nsd = 1.0e+20
+ rshg = 0.1
+ rsh = 1.0
* Threshold Voltage Parameters
+ vth0 = {0.793646+sky130_fd_pr__nfet_g5v0d10v5__vth0_slope_spectre*(sky130_fd_pr__nfet_g5v0d10v5__vth0_slope/sqrt(l*w*mult))}
+ k1 = 0.88325
+ k2 = -0.0384371
+ k3 = -0.884
+ dvt0 = 0.0
+ dvt1 = 0.53
+ dvt2 = -0.19251
+ dvt0w = 0.16
+ dvt1w = 6909100.0
+ dvt2w = -0.036016
+ w0 = 0.0
+ k3b = 0.43
* NEW BSIM4 Parameters for Level 54
+ phin = 0.0
+ lpe0 = 2.5e-8
+ lpeb = -2.182e-7
+ vbm = -3.0
+ dvtp0 = 0.0
+ dvtp1 = 0.0
* Mobility Parameters
+ vsat = 105660.0
+ ua = -5.84299e-11
+ ub = 1.6951e-18
+ uc = 6.6204e-11
+ rdsw = 724.62
+ prwb = 0.05626
+ prwg = 0.048
+ wr = 1.0
+ u0 = 0.0418565
+ a0 = 0.94501626
+ keta = -0.02132
+ a1 = 0.0
+ a2 = 0.65972622
+ ags = 0.1410462
+ b0 = 3.2933e-8
+ b1 = 0.0
* BSIM4 - Mobility Parameters
+ eu = 1.67
+ rdswmin = 0.0
+ rdw = 0.0
+ rdwmin = 0.0
+ rsw = 0.0
+ rswmin = 0.0
* Subthreshold Current Parameters
+ voff = {-0.20613+sky130_fd_pr__nfet_g5v0d10v5__voff_slope_spectre*(sky130_fd_pr__nfet_g5v0d10v5__voff_slope/sqrt(l*w*mult))}
+ nfactor = {1.53573+sky130_fd_pr__nfet_g5v0d10v5__nfactor_slope_spectre*(sky130_fd_pr__nfet_g5v0d10v5__nfactor_slope/sqrt(l*w*mult))}
+ up = 0.0
+ ud = 0.0
+ lp = 1.0
+ tvfbsdoff = 0.0
+ tvoff = 0.0
+ cit = -8.0e-4
+ cdsc = 0.0
+ cdscb = 0.0
+ cdscd = 0.0
+ eta0 = 0.032
+ etab = -0.01932
+ dsub = 0.504
* BSIM4 - Sub-threshold parameters
+ voffl = -4.2579486e-7
+ minv = 0.0
* Rout Parameters
+ pclm = 0.33405
+ pdiblc1 = 0.21098
+ pdiblc2 = 2.0e-4
+ pdiblcb = -0.26831
+ drout = 0.36075
+ pscbe1 = 937310000.0
+ pscbe2 = 1.68e-6
+ pvag = 1.99
+ delta = 0.0246
+ alpha0 = 1.4467e-5
+ alpha1 = 0.0
+ beta0 = 24.0
* BSIM4 - Rout Parameters
+ fprout = 10.125
+ pdits = 0.0
+ pditsl = 0.0
+ pditsd = 0.0
* BSIM4 - Gate Induced Drain Leakage Model Parameters
+ agidl = 3.7316e-11
+ bgidl = 1058000000.0
+ cgidl = 4000.0
+ egidl = 0.8
* BSIM4 - Gate Leakage Current Parameters
+ aigbacc = 1.0
+ bigbacc = 0.0
+ cigbacc = 0.0
+ nigbacc = 1.0
+ aigbinv = 0.35
+ bigbinv = 0.03
+ cigbinv = 0.006
+ eigbinv = 1.1
+ nigbinv = 3.0
+ aigc = 0.43
+ bigc = 0.054
+ cigc = 0.075
+ nigc = 1.0
+ aigsd = 0.43
+ bigsd = 0.054
+ cigsd = 0.075
+ dlcig = 0.0
+ poxedge = 1.0
+ pigcd = 1.0
+ ntox = 1.0
+ toxref = 1.16e-8
* Temperature Effects Parameters
+ kt1 = -0.74079
+ kt2 = -0.019151
+ at = 160000.0
+ ute = -1.2986
+ ua1 = 3.0044e-9
+ ub1 = -3.7525e-18
+ uc1 = -5.9821e-11
+ kt1l = 0.0
+ prt = 0.0
* BSIM4 - High Speed RF Model Parameters
+ xrcrg1 = 12.0
+ xrcrg2 = 1.0
+ rbpb = 50.0
+ rbpd = 50.0
+ rbps = 50.0
+ rbdb = 50.0
+ rbsb = 50.0
+ gbmin = 1.0e-12
* BSIM4 - Flicker and Thermal Noise Parameters
+ noia = 2.6e+41
+ noib = 0.0
+ noic = 0.0
+ em = 41000000.0
+ af = 1.0
+ ef = 0.89
+ kf = 0.0
+ ntnoi = 1.0
* BSIM4 - Layout Dependent Parasitic Model Parameters
+ dmcg = 0.0
+ dmcgt = 0.0
+ dmdg = 0.0
+ xgw = 0.0
+ xgl = 0.0
+ ngcon = 1.0
* Diode DC IV Parameters
* BSIM4 - Diode DC IV parameters
+ diomod = 1.0
+ njs = 1.0773
+ jss = 0.000375
+ jsws = 5.84e-11
+ xtis = 0.76
+ bvs = 12.636
+ xjbvs = 1.0
+ ijthsrev = 0.1
+ ijthsfwd = 0.1
* Diode and FET Capacitance Parameters
+ tpb = 0.001344
+ tpbsw = 0.00099005
+ tpbswg = 0.0
+ tcj = 0.00067434
+ tcjsw = 0.0002493
+ tcjswg = 0.0
+ cgdo = 2.338769804e-10
+ cgso = 2.338769804e-10
+ cgbo = 0.0
+ capmod = 2.0
+ xpart = 0.0
+ cgsl = 3.8123e-11
+ cgdl = 3.8123e-11
+ cf = 0.0
+ clc = 1.0e-7
+ cle = 0.6
+ dlc = 8.332e-8
+ dwc = -3.2175e-8
+ vfbcv = -1.0
+ acde = 0.4176
+ moin = 15.0
+ noff = 4.0
+ voffcv = -0.4104
+ ngate = 1.0e+23
+ lwc = 0.0
+ llc = 0.0
+ lwlc = 0.0
+ wlc = 0.0
+ wwc = 0.0
+ wwlc = 0.0
* BSIM4 - FET and Diode capacitance parameters
+ ckappas = 0.6
+ cjs = 0.000695881536
+ mjs = 0.295
+ pbs = 0.72468
+ cjsws = 6.627678344e-11
+ mjsws = 0.037586
+ pbsws = 0.29067
+ cjswgs = 4.200444e-11
+ mjswgs = 0.78692
+ pbswgs = 0.54958
* Stress Parameters
+ saref = 3.0e-6
+ sbref = 3.0e-6
+ wlod = {0+sky130_fd_pr__nfet_g5v0d10v5__wlod_diff}
+ kvth0 = {0+sky130_fd_pr__nfet_g5v0d10v5__kvth0_diff}
+ lkvth0 = {0+sky130_fd_pr__nfet_g5v0d10v5__lkvth0_diff}
+ wkvth0 = {0+sky130_fd_pr__nfet_g5v0d10v5__wkvth0_diff}
+ pkvth0 = 0.0
+ llodvth = 0.0
+ wlodvth = 1.0
+ stk2 = 0.0
+ lodk2 = 1.0
+ lodeta0 = 1.0
+ ku0 = {0+sky130_fd_pr__nfet_g5v0d10v5__ku0_diff}
+ lku0 = {0+sky130_fd_pr__nfet_g5v0d10v5__lku0_diff}
+ wku0 = {0+sky130_fd_pr__nfet_g5v0d10v5__wku0_diff}
+ pku0 = 0.0
+ llodku0 = 0.0
+ wlodku0 = 1.0
+ kvsat = {0+sky130_fd_pr__nfet_g5v0d10v5__kvsat_diff}
+ steta0 = 0.0
+ tku0 = 0.0
.model sky130_fd_pr__nfet_g5v0d10v5__model.2 nmos
* DC IV MOS Parameters
+ lmin = 4e-06 lmax = 8e-06 wmin = 2.0e-05 wmax = 1.0e-4
+ level = 54.0
+ tnom = 30.0
+ version = 4.5
+ toxm = 1.16e-8
+ xj = 1.5e-7
+ lln = 1.0
+ lwn = 1.0
+ wln = 1.0
+ wwn = 1.0
+ lint = 9.3832e-8
+ ll = 0.0
+ lw = 0.0
+ lwl = 0.0
+ wint = -1.0829e-8
+ wl = 0.0
+ ww = 0.0
+ wwl = 0.0
+ xl = 0.0
+ xw = 0.0
+ mobmod = 0.0
+ binunit = 2.0
+ dwg = -4.1292e-9
+ dwb = -1.6944e-9
* BSIM4 - Model Selectors
+ igcmod = 0.0
+ igbmod = 0.0
+ rgatemod = 0.0
+ rbodymod = 1.0
+ trnqsmod = 0.0
+ acnqsmod = 0.0
+ fnoimod = 1.0
+ tnoimod = 1.0
+ permod = 1.0
+ geomod = 0.0
+ rdsmod = 0.0
+ tempmod = 0.0
+ lintnoi = 0.0
+ vfbsdoff = 0.0
+ lambda = 0.0
+ vtl = 0.0
+ lc = 5.0e-9
+ xn = 3.0
+ rnoia = 0.794
+ rnoib = 0.38
+ tnoia = 7.50e+6
+ tnoib = 7.2e+6
* BSIM4 - Process Parameters
+ epsrox = 3.9
+ toxe = {1.0904e-08+sky130_fd_pr__nfet_g5v0d10v5__toxe_slope_spectre*(1.2296e-08*(sky130_fd_pr__nfet_g5v0d10v5__toxe_slope3/sqrt(l*w*mult)))}
+ dtox = 0.0
+ ndep = 1.7000000000000000e+17
+ nsd = 1.0e+20
+ rshg = 0.1
+ rsh = 1.0
* Threshold Voltage Parameters
+ vth0 = {0.789325670228+sky130_fd_pr__nfet_g5v0d10v5__vth0_slope_spectre*(sky130_fd_pr__nfet_g5v0d10v5__vth0_slope/sqrt(l*w*mult))} lvth0 = 3.37518678096674e-8
+ k1 = 0.88325
+ k2 = -0.0396087261612 lk2 = 9.15313723768459e-9
+ k3 = -0.884
+ dvt0 = 0.0
+ dvt1 = 0.53
+ dvt2 = -0.19251
+ dvt0w = 0.16
+ dvt1w = 6909100.0
+ dvt2w = -0.036016
+ w0 = 0.0
+ k3b = 0.43
* NEW BSIM4 Parameters for Level 54
+ phin = 0.0
+ lpe0 = 2.5e-8
+ lpeb = -2.182e-7
+ vbm = -3.0
+ dvtp0 = 0.0
+ dvtp1 = 0.0
* Mobility Parameters
+ vsat = 110425.42 lvsat = -0.03722906222112
+ ua = -1.009810976472e-10 lua = 3.32424253222336e-16
+ ub = 1.84142698652e-18 lub = -1.14315558456171e-24
+ uc = 6.6204e-11
+ rdsw = 724.62
+ prwb = 0.05626
+ prwg = 0.048
+ wr = 1.0
+ u0 = 0.0419580987544 lu0 = -7.9372360655426e-10
+ a0 = 1.03070800431664 la0 = -6.69452699027683e-7
+ keta = -0.017304657108 lketa = -3.13692078275157e-8
+ a1 = 0.0
+ a2 = 0.65972622
+ ags = 0.1570791696648 lags = -1.25254946099225e-7
+ b0 = 3.2933e-8
+ b1 = 0.0
* BSIM4 - Mobility Parameters
+ eu = 1.67
+ rdswmin = 0.0
+ rdw = 0.0
+ rdwmin = 0.0
+ rsw = 0.0
+ rswmin = 0.0
* Subthreshold Current Parameters
+ voff = {-0.144281519988+sky130_fd_pr__nfet_g5v0d10v5__voff_slope_spectre*(sky130_fd_pr__nfet_g5v0d10v5__voff_slope/sqrt(l*w*mult))} lvoff = -4.83181106943028e-7
+ nfactor = {2.2400114218+sky130_fd_pr__nfet_g5v0d10v5__nfactor_slope_spectre*(sky130_fd_pr__nfet_g5v0d10v5__nfactor_slope/sqrt(l*w*mult))} lnfactor = -5.50208310565932e-6
+ up = 0.0
+ ud = 0.0
+ lp = 1.0
+ tvfbsdoff = 0.0
+ tvoff = 0.0
+ cit = -8.0e-4
+ cdsc = 0.0
+ cdscb = 0.0
+ cdscd = 0.0
+ eta0 = 0.032
+ etab = -0.01932
+ dsub = 0.504
* BSIM4 - Sub-threshold parameters
+ voffl = -4.2579486e-7
+ minv = 0.0
* Rout Parameters
+ pclm = 0.26057675444 lpclm = 5.73997681325229e-7
+ pdiblc1 = 0.21098
+ pdiblc2 = 2.0e-4
+ pdiblcb = -0.26831
+ drout = 0.36075
+ pscbe1 = 937310000.0
+ pscbe2 = 1.68e-6
+ pvag = 1.99
+ delta = 0.0246
+ alpha0 = 1.4467e-5
+ alpha1 = 0.0
+ beta0 = 21.5219816 lbeta0 = 1.93591123549824e-5
* BSIM4 - Rout Parameters
+ fprout = 10.125
+ pdits = 0.0
+ pditsl = 0.0
+ pditsd = 0.0
* BSIM4 - Gate Induced Drain Leakage Model Parameters
+ agidl = 3.6754633524e-11 lagidl = 4.38558352964794e-18
+ bgidl = 1058000000.0
+ cgidl = 4000.0
+ egidl = 0.8
* BSIM4 - Gate Leakage Current Parameters
+ aigbacc = 1.0
+ bigbacc = 0.0
+ cigbacc = 0.0
+ nigbacc = 1.0
+ aigbinv = 0.35
+ bigbinv = 0.03
+ cigbinv = 0.006
+ eigbinv = 1.1
+ nigbinv = 3.0
+ aigc = 0.43
+ bigc = 0.054
+ cigc = 0.075
+ nigc = 1.0
+ aigsd = 0.43
+ bigsd = 0.054
+ cigsd = 0.075
+ dlcig = 0.0
+ poxedge = 1.0
+ pigcd = 1.0
+ ntox = 1.0
+ toxref = 1.16e-8
* Temperature Effects Parameters
+ kt1 = -0.83211450888 lkt1 = 7.13457748405542e-7
+ kt2 = -0.019151
+ at = 236246.72 lat = -0.59566499553792
+ ute = -1.33672336 lute = 2.97832497768961e-7
+ ua1 = 3.0044e-9
+ ub1 = -3.7525e-18
+ uc1 = -5.9821e-11
+ kt1l = 0.0
+ prt = 0.0
* BSIM4 - High Speed RF Model Parameters
+ xrcrg1 = 12.0
+ xrcrg2 = 1.0
+ rbpb = 50.0
+ rbpd = 50.0
+ rbps = 50.0
+ rbdb = 50.0
+ rbsb = 50.0
+ gbmin = 1.0e-12
* BSIM4 - Flicker and Thermal Noise Parameters
+ noia = 2.6e+41
+ noib = 0.0
+ noic = 0.0
+ em = 41000000.0
+ af = 1.0
+ ef = 0.89
+ kf = 0.0
+ ntnoi = 1.0
* BSIM4 - Layout Dependent Parasitic Model Parameters
+ dmcg = 0.0
+ dmcgt = 0.0
+ dmdg = 0.0
+ xgw = 0.0
+ xgl = 0.0
+ ngcon = 1.0
* Diode DC IV Parameters
* BSIM4 - Diode DC IV parameters
+ diomod = 1.0
+ njs = 1.0773
+ jss = 0.000375
+ jsws = 5.84e-11
+ xtis = 0.76
+ bvs = 12.636
+ xjbvs = 1.0
+ ijthsrev = 0.1
+ ijthsfwd = 0.1
* Diode and FET Capacitance Parameters
+ tpb = 0.001344
+ tpbsw = 0.00099005
+ tpbswg = 0.0
+ tcj = 0.00067434
+ tcjsw = 0.0002493
+ tcjswg = 0.0
+ cgdo = 2.338769804e-10
+ cgso = 2.338769804e-10
+ cgbo = 0.0
+ capmod = 2.0
+ xpart = 0.0
+ cgsl = 3.8123e-11
+ cgdl = 3.8123e-11
+ cf = 0.0
+ clc = 1.0e-7
+ cle = 0.6
+ dlc = 8.332e-8
+ dwc = -3.2175e-8
+ vfbcv = -1.0
+ acde = 0.4176
+ moin = 15.0
+ noff = 4.0
+ voffcv = -0.4104
+ ngate = 1.0e+23
+ lwc = 0.0
+ llc = 0.0
+ lwlc = 0.0
+ wlc = 0.0
+ wwc = 0.0
+ wwlc = 0.0
* BSIM4 - FET and Diode capacitance parameters
+ ckappas = 0.6
+ cjs = 0.000695881536
+ mjs = 0.295
+ pbs = 0.72468
+ cjsws = 6.627678344e-11
+ mjsws = 0.037586
+ pbsws = 0.29067
+ cjswgs = 4.200444e-11
+ mjswgs = 0.78692
+ pbswgs = 0.54958
* Stress Parameters
+ saref = 3.0e-6
+ sbref = 3.0e-6
+ wlod = {0+sky130_fd_pr__nfet_g5v0d10v5__wlod_diff}
+ kvth0 = {0+sky130_fd_pr__nfet_g5v0d10v5__kvth0_diff}
+ lkvth0 = {0+sky130_fd_pr__nfet_g5v0d10v5__lkvth0_diff}
+ wkvth0 = {0+sky130_fd_pr__nfet_g5v0d10v5__wkvth0_diff}
+ pkvth0 = 0.0
+ llodvth = 0.0
+ wlodvth = 1.0
+ stk2 = 0.0
+ lodk2 = 1.0
+ lodeta0 = 1.0
+ ku0 = {0+sky130_fd_pr__nfet_g5v0d10v5__ku0_diff}
+ lku0 = {0+sky130_fd_pr__nfet_g5v0d10v5__lku0_diff}
+ wku0 = {0+sky130_fd_pr__nfet_g5v0d10v5__wku0_diff}
+ pku0 = 0.0
+ llodku0 = 0.0
+ wlodku0 = 1.0
+ kvsat = {0+sky130_fd_pr__nfet_g5v0d10v5__kvsat_diff}
+ steta0 = 0.0
+ tku0 = 0.0
.model sky130_fd_pr__nfet_g5v0d10v5__model.3 nmos
* DC IV MOS Parameters
+ lmin = 2e-06 lmax = 4e-06 wmin = 2.0e-05 wmax = 1.0e-4
+ level = 54.0
+ tnom = 30.0
+ version = 4.5
+ toxm = 1.16e-8
+ xj = 1.5e-7
+ lln = 1.0
+ lwn = 1.0
+ wln = 1.0
+ wwn = 1.0
+ lint = 9.3832e-8
+ ll = 0.0
+ lw = 0.0
+ lwl = 0.0
+ wint = -1.0829e-8
+ wl = 0.0
+ ww = 0.0
+ wwl = 0.0
+ xl = 0.0
+ xw = 0.0
+ mobmod = 0.0
+ binunit = 2.0
+ dwg = -4.1292e-9
+ dwb = -1.6944e-9
* BSIM4 - Model Selectors
+ igcmod = 0.0
+ igbmod = 0.0
+ rgatemod = 0.0
+ rbodymod = 1.0
+ trnqsmod = 0.0
+ acnqsmod = 0.0
+ fnoimod = 1.0
+ tnoimod = 1.0
+ permod = 1.0
+ geomod = 0.0
+ rdsmod = 0.0
+ tempmod = 0.0
+ lintnoi = 0.0
+ vfbsdoff = 0.0
+ lambda = 0.0
+ vtl = 0.0
+ lc = 5.0e-9
+ xn = 3.0
+ rnoia = 0.794
+ rnoib = 0.38
+ tnoia = 7.50e+6
+ tnoib = 7.2e+6
* BSIM4 - Process Parameters
+ epsrox = 3.9
+ toxe = {1.0904e-08+sky130_fd_pr__nfet_g5v0d10v5__toxe_slope_spectre*(1.2296e-08*(sky130_fd_pr__nfet_g5v0d10v5__toxe_slope/sqrt(l*w*mult)))}
+ dtox = 0.0
+ ndep = 1.7000000000000000e+17
+ nsd = 1.0e+20
+ rshg = 0.1
+ rsh = 1.0
* Threshold Voltage Parameters
+ vth0 = {0.805284263288+sky130_fd_pr__nfet_g5v0d10v5__vth0_slope_spectre*(sky130_fd_pr__nfet_g5v0d10v5__vth0_slope/sqrt(l*w*mult))} lvth0 = -2.70876510223209e-8
+ k1 = 0.88325
+ k2 = -0.0416511041712 lk2 = 1.6939368450816e-08 wk2 = -2.11758236813575e-22
+ k3 = -0.884
+ dvt0 = 0.0
+ dvt1 = 0.53
+ dvt2 = -0.19251
+ dvt0w = 0.16
+ dvt1w = 6909100.0
+ dvt2w = -0.036016
+ w0 = 0.0
+ k3b = 0.43
* NEW BSIM4 Parameters for Level 54
+ phin = 0.0
+ lpe0 = 2.5e-8
+ lpeb = -2.182e-7
+ vbm = -3.0
+ dvtp0 = 0.0
+ dvtp1 = 0.0
* Mobility Parameters
+ vsat = 93909.0484 lvsat = 0.0257368958189376
+ ua = 1.047175735464e-10 lua = -4.51768196121188e-16 wua = 9.86076131526265e-32 pua = 3.76158192263132e-37
+ ub = 1.49940600296e-18 lub = 1.60743323819486e-25
+ uc = 6.6204e-11
+ rdsw = 724.62
+ prwb = 0.05626
+ prwg = 0.048
+ wr = 1.0
+ u0 = 0.0422586227152 lu0 = -1.93942192117469e-9
+ a0 = 0.4891605022816 la0 = 1.39510833869057e-6
+ keta = -0.039010436664 lketa = 5.13805169818871e-8
+ a1 = 0.0
+ a2 = 0.65972622
+ ags = 0.112641360624 lags = 4.41569130681423e-8
+ b0 = 3.2933e-8
+ b1 = 0.0
* BSIM4 - Mobility Parameters
+ eu = 1.67
+ rdswmin = 0.0
+ rdw = 0.0
+ rdwmin = 0.0
+ rsw = 0.0
+ rswmin = 0.0
* Subthreshold Current Parameters
+ voff = {-0.3257312618976+sky130_fd_pr__nfet_g5v0d10v5__voff_slope_spectre*(sky130_fd_pr__nfet_g5v0d10v5__voff_slope/sqrt(l*w*mult))} lvoff = 2.08566276329649e-7
+ nfactor = {0.84472534888+sky130_fd_pr__nfet_g5v0d10v5__nfactor_slope_spectre*(sky130_fd_pr__nfet_g5v0d10v5__nfactor_slope/sqrt(l*w*mult))} lnfactor = -1.82783779567784e-7
+ up = 0.0
+ ud = 0.0
+ lp = 1.0
+ tvfbsdoff = 0.0
+ tvoff = 0.0
+ cit = -8.0e-4
+ cdsc = 0.0
+ cdscb = 0.0
+ cdscd = 0.0
+ eta0 = 0.032
+ etab = -0.01932
+ dsub = 0.504
* BSIM4 - Sub-threshold parameters
+ voffl = -4.2579486e-7
+ minv = 0.0
* Rout Parameters
+ pclm = 0.59742095576 lpclm = -7.10165593758256e-7
+ pdiblc1 = 0.21098
+ pdiblc2 = 2.0e-4
+ pdiblcb = -0.26831
+ drout = 0.36075
+ pscbe1 = 937310000.0
+ pscbe2 = 1.68e-6
+ pvag = 1.99
+ delta = 0.0246
+ alpha0 = 1.4467e-5
+ alpha1 = 0.0
+ beta0 = 23.910493376 lbeta0 = 1.02533029249137e-5
* BSIM4 - Rout Parameters
+ fprout = 10.125
+ pdits = 0.0
+ pditsl = 0.0
+ pditsd = 0.0
* BSIM4 - Gate Induced Drain Leakage Model Parameters
+ agidl = 5.3733036456e-11 lagidl = -6.03417931905212e-17
+ bgidl = 1058000000.0
+ cgidl = 4000.0
+ egidl = 0.8
* BSIM4 - Gate Leakage Current Parameters
+ aigbacc = 1.0
+ bigbacc = 0.0
+ cigbacc = 0.0
+ nigbacc = 1.0
+ aigbinv = 0.35
+ bigbinv = 0.03
+ cigbinv = 0.006
+ eigbinv = 1.1
+ nigbinv = 3.0
+ aigc = 0.43
+ bigc = 0.054
+ cigc = 0.075
+ nigc = 1.0
+ aigsd = 0.43
+ bigsd = 0.054
+ cigsd = 0.075
+ dlcig = 0.0
+ poxedge = 1.0
+ pigcd = 1.0
+ ntox = 1.0
+ toxref = 1.16e-8
* Temperature Effects Parameters
+ kt1 = -0.75747981888 lkt1 = 4.28925232869704e-7
+ kt2 = -0.019151
+ at = 137994.752 lat = -0.221095480860672
+ ute = -1.22235328 lute = -1.3818467553792e-7
+ ua1 = 3.0044e-9
+ ub1 = -3.7525e-18
+ uc1 = -5.9821e-11
+ kt1l = 0.0
+ prt = 0.0
* BSIM4 - High Speed RF Model Parameters
+ xrcrg1 = 12.0
+ xrcrg2 = 1.0
+ rbpb = 50.0
+ rbpd = 50.0
+ rbps = 50.0
+ rbdb = 50.0
+ rbsb = 50.0
+ gbmin = 1.0e-12
* BSIM4 - Flicker and Thermal Noise Parameters
+ noia = 2.6e+41
+ noib = 0.0
+ noic = 0.0
+ em = 41000000.0
+ af = 1.0
+ ef = 0.89
+ kf = 0.0
+ ntnoi = 1.0
* BSIM4 - Layout Dependent Parasitic Model Parameters
+ dmcg = 0.0
+ dmcgt = 0.0
+ dmdg = 0.0
+ xgw = 0.0
+ xgl = 0.0
+ ngcon = 1.0
* Diode DC IV Parameters
* BSIM4 - Diode DC IV parameters
+ diomod = 1.0
+ njs = 1.0773
+ jss = 0.000375
+ jsws = 5.84e-11
+ xtis = 0.76
+ bvs = 12.636
+ xjbvs = 1.0
+ ijthsrev = 0.1
+ ijthsfwd = 0.1
* Diode and FET Capacitance Parameters
+ tpb = 0.001344
+ tpbsw = 0.00099005
+ tpbswg = 0.0
+ tcj = 0.00067434
+ tcjsw = 0.0002493
+ tcjswg = 0.0
+ cgdo = 2.338769804e-10
+ cgso = 2.338769804e-10
+ cgbo = 0.0
+ capmod = 2.0
+ xpart = 0.0
+ cgsl = 3.8123e-11
+ cgdl = 3.8123e-11
+ cf = 0.0
+ clc = 1.0e-7
+ cle = 0.6
+ dlc = 8.332e-8
+ dwc = -3.2175e-8
+ vfbcv = -1.0
+ acde = 0.4176
+ moin = 15.0
+ noff = 4.0
+ voffcv = -0.4104
+ ngate = 1.0e+23
+ lwc = 0.0
+ llc = 0.0
+ lwlc = 0.0
+ wlc = 0.0
+ wwc = 0.0
+ wwlc = 0.0
* BSIM4 - FET and Diode capacitance parameters
+ ckappas = 0.6
+ cjs = 0.000695881536
+ mjs = 0.295
+ pbs = 0.72468
+ cjsws = 6.627678344e-11
+ mjsws = 0.037586
+ pbsws = 0.29067
+ cjswgs = 4.200444e-11
+ mjswgs = 0.78692
+ pbswgs = 0.54958
* Stress Parameters
+ saref = 3.0e-6
+ sbref = 3.0e-6
+ wlod = {0+sky130_fd_pr__nfet_g5v0d10v5__wlod_diff}
+ kvth0 = {0+sky130_fd_pr__nfet_g5v0d10v5__kvth0_diff}
+ lkvth0 = {0+sky130_fd_pr__nfet_g5v0d10v5__lkvth0_diff}
+ wkvth0 = {0+sky130_fd_pr__nfet_g5v0d10v5__wkvth0_diff}
+ pkvth0 = 0.0
+ llodvth = 0.0
+ wlodvth = 1.0
+ stk2 = 0.0
+ lodk2 = 1.0
+ lodeta0 = 1.0
+ ku0 = {0+sky130_fd_pr__nfet_g5v0d10v5__ku0_diff}
+ lku0 = {0+sky130_fd_pr__nfet_g5v0d10v5__lku0_diff}
+ wku0 = {0+sky130_fd_pr__nfet_g5v0d10v5__wku0_diff}
+ pku0 = 0.0
+ llodku0 = 0.0
+ wlodku0 = 1.0
+ kvsat = {0+sky130_fd_pr__nfet_g5v0d10v5__kvsat_diff}
+ steta0 = 0.0
+ tku0 = 0.0
.model sky130_fd_pr__nfet_g5v0d10v5__model.4 nmos
* DC IV MOS Parameters
+ lmin = 1e-06 lmax = 2e-06 wmin = 2.0e-05 wmax = 1.0e-4
+ level = 54.0
+ tnom = 30.0
+ version = 4.5
+ toxm = 1.16e-8
+ xj = 1.5e-7
+ lln = 1.0
+ lwn = 1.0
+ wln = 1.0
+ wwn = 1.0
+ lint = 9.3832e-8
+ ll = 0.0
+ lw = 0.0
+ lwl = 0.0
+ wint = -1.0829e-8
+ wl = 0.0
+ ww = 0.0
+ wwl = 0.0
+ xl = 0.0
+ xw = 0.0
+ mobmod = 0.0
+ binunit = 2.0
+ dwg = -4.1292e-9
+ dwb = -1.6944e-9
* BSIM4 - Model Selectors
+ igcmod = 0.0
+ igbmod = 0.0
+ rgatemod = 0.0
+ rbodymod = 1.0
+ trnqsmod = 0.0
+ acnqsmod = 0.0
+ fnoimod = 1.0
+ tnoimod = 1.0
+ permod = 1.0
+ geomod = 0.0
+ rdsmod = 0.0
+ tempmod = 0.0
+ lintnoi = 0.0
+ vfbsdoff = 0.0
+ lambda = 0.0
+ vtl = 0.0
+ lc = 5.0e-9
+ xn = 3.0
+ rnoia = 0.794
+ rnoib = 0.38
+ tnoia = 7.50e+6
+ tnoib = 7.2e+6
* BSIM4 - Process Parameters
+ epsrox = 3.9
+ toxe = {1.0904e-08+sky130_fd_pr__nfet_g5v0d10v5__toxe_slope_spectre*(1.2296e-08*(sky130_fd_pr__nfet_g5v0d10v5__toxe_slope/sqrt(l*w*mult)))}
+ dtox = 0.0
+ ndep = 1.7000000000000000e+17
+ nsd = 1.0e+20
+ rshg = 0.1
+ rsh = 1.0
* Threshold Voltage Parameters
+ vth0 = {0.788926972368+sky130_fd_pr__nfet_g5v0d10v5__vth0_slope_spectre*(sky130_fd_pr__nfet_g5v0d10v5__vth0_slope/sqrt(l*w*mult))} lvth0 = 2.55725617446818e-9
+ k1 = 0.88325
+ k2 = -0.0396502732144 lk2 = 1.33131904778928e-8
+ k3 = -0.884
+ dvt0 = 0.0
+ dvt1 = 0.53
+ dvt2 = -0.19251
+ dvt0w = 0.16
+ dvt1w = 6909100.0
+ dvt2w = -0.036016
+ w0 = 0.0
+ k3b = 0.43
* NEW BSIM4 Parameters for Level 54
+ phin = 0.0
+ lpe0 = 2.5e-8
+ lpeb = -2.182e-7
+ vbm = -3.0
+ dvtp0 = 0.0
+ dvtp1 = 0.0
* Mobility Parameters
+ vsat = 119403.907408 lvsat = -0.0204683549761851
+ ua = -1.4015488735776e-10 lua = -7.97701981598668e-18
+ ub = 1.694312932e-18 lub = -1.92493520329152e-25
+ uc = 6.6204e-11
+ rdsw = 724.62
+ prwb = 0.05626
+ prwg = 0.048
+ wr = 1.0
+ u0 = 0.039851394944 lu0 = 2.42328362877081e-09 wu0 = -2.11758236813575e-22
+ a0 = 1.6443791171696 la0 = -6.98535944941084e-07 wa0 = 6.7762635780344e-21
+ keta = 0.00275004268800001 lketa = -2.43035031249992e-8
+ a1 = 0.0
+ a2 = 0.65972622
+ ags = 0.186902926464 lags = -9.04299961200599e-8
+ b0 = 3.2933e-8
+ b1 = 0.0
* BSIM4 - Mobility Parameters
+ eu = 1.67
+ rdswmin = 0.0
+ rdw = 0.0
+ rdwmin = 0.0
+ rsw = 0.0
+ rswmin = 0.0
* Subthreshold Current Parameters
+ voff = {-0.2143213962528+sky130_fd_pr__nfet_g5v0d10v5__voff_slope_spectre*(sky130_fd_pr__nfet_g5v0d10v5__voff_slope/sqrt(l*w*mult))} lvoff = 6.65416606641452e-9
+ nfactor = {0.942772906608+sky130_fd_pr__nfet_g5v0d10v5__nfactor_slope_spectre*(sky130_fd_pr__nfet_g5v0d10v5__nfactor_slope/sqrt(l*w*mult))} lnfactor = -3.60478898150316e-7
+ up = 0.0
+ ud = 0.0
+ lp = 1.0
+ tvfbsdoff = 0.0
+ tvoff = 0.0
+ cit = -8.0e-4
+ cdsc = 0.0
+ cdscb = 0.0
+ cdscd = 0.0
+ eta0 = 0.032
+ etab = -0.01932
+ dsub = 0.504
* BSIM4 - Sub-threshold parameters
+ voffl = -4.2579486e-7
+ minv = 0.0
* Rout Parameters
+ pclm = 0.10120107072 lpclm = 1.89151567815598e-7
+ pdiblc1 = 0.21098
+ pdiblc2 = 2.0e-4
+ pdiblcb = -0.26831
+ drout = 0.36075
+ pscbe1 = 937310000.0
+ pscbe2 = 1.68e-6
+ pvag = 1.99
+ delta = 0.0246
+ alpha0 = 1.4467e-5
+ alpha1 = 0.0
+ beta0 = 27.186230848 lbeta0 = 4.31656597785907e-6
* BSIM4 - Rout Parameters
+ fprout = 10.125
+ pdits = 0.0
+ pditsl = 0.0
+ pditsd = 0.0
* BSIM4 - Gate Induced Drain Leakage Model Parameters
+ agidl = 3.7040523168e-11 lagidl = -3.00893504282005e-17
+ bgidl = 1058000000.0
+ cgidl = 4000.0
+ egidl = 0.8
* BSIM4 - Gate Leakage Current Parameters
+ aigbacc = 1.0
+ bigbacc = 0.0
+ cigbacc = 0.0
+ nigbacc = 1.0
+ aigbinv = 0.35
+ bigbinv = 0.03
+ cigbinv = 0.006
+ eigbinv = 1.1
+ nigbinv = 3.0
+ aigc = 0.43
+ bigc = 0.054
+ cigc = 0.075
+ nigc = 1.0
+ aigsd = 0.43
+ bigsd = 0.054
+ cigsd = 0.075
+ dlcig = 0.0
+ poxedge = 1.0
+ pigcd = 1.0
+ ntox = 1.0
+ toxref = 1.16e-8
* Temperature Effects Parameters
+ kt1 = -0.500704684 lkt1 = -3.64375879781762e-8
+ kt2 = -0.019151
+ at = 9501.31199999999 lat = 0.011777806215168
+ ute = -1.2986
+ ua1 = 3.0044e-9
+ ub1 = -3.9963632672e-18 lub1 = 4.41962178224179e-25
+ uc1 = -5.9821e-11
+ kt1l = 0.0
+ prt = 0.0
* BSIM4 - High Speed RF Model Parameters
+ xrcrg1 = 12.0
+ xrcrg2 = 1.0
+ rbpb = 50.0
+ rbpd = 50.0
+ rbps = 50.0
+ rbdb = 50.0
+ rbsb = 50.0
+ gbmin = 1.0e-12
* BSIM4 - Flicker and Thermal Noise Parameters
+ noia = 2.6e+41
+ noib = 0.0
+ noic = 0.0
+ em = 41000000.0
+ af = 1.0
+ ef = 0.89
+ kf = 0.0
+ ntnoi = 1.0
* BSIM4 - Layout Dependent Parasitic Model Parameters
+ dmcg = 0.0
+ dmcgt = 0.0
+ dmdg = 0.0
+ xgw = 0.0
+ xgl = 0.0
+ ngcon = 1.0
* Diode DC IV Parameters
* BSIM4 - Diode DC IV parameters
+ diomod = 1.0
+ njs = 1.0773
+ jss = 0.000375
+ jsws = 5.84e-11
+ xtis = 0.76
+ bvs = 12.636
+ xjbvs = 1.0
+ ijthsrev = 0.1
+ ijthsfwd = 0.1
* Diode and FET Capacitance Parameters
+ tpb = 0.001344
+ tpbsw = 0.00099005
+ tpbswg = 0.0
+ tcj = 0.00067434
+ tcjsw = 0.0002493
+ tcjswg = 0.0
+ cgdo = 2.338769804e-10
+ cgso = 2.338769804e-10
+ cgbo = 0.0