* Copyright 2022 GlobalFoundries PDK Authors
*
* Licensed under the Apache License, Version 2.0 (the "License");
* you may not use this file except in compliance with the License.
* You may obtain a copy of the License at
*
*      http://www.apache.org/licenses/LICENSE-2.0
*
* Unless required by applicable law or agreed to in writing, software
* distributed under the License is distributed on an "AS IS" BASIS,
* WITHOUT WARRANTIES OR CONDITIONS OF ANY KIND, either express or implied.
* See the License for the specific language governing permissions and
* limitations under the License.

.SUBCKT gf180mcu_fd_sc_mcu7t5v0__addf_1 A B CI CO S VDD VNW VPW VSS
X_M51 VSS net9 S VPW nfet_06v0 W=7.1e-07 L=6e-07
X_M46 net9 CI net47 VPW nfet_06v0 W=3.8e-07 L=6e-07
X_M45 net42 CI VSS VPW nfet_06v0 W=3.8e-07 L=6e-07
X_M34 CO net7 VSS VPW nfet_06v0 W=8.15e-07 L=6e-07
X_M33 VDD net9 S VNW pfet_06v0 W=1.215e-06 L=5e-07
X_M28 net9 CI net29 VNW pfet_06v0 W=6.6e-07 L=5e-07
X_M24 net9 net7 net3 VNW pfet_06v0 W=6.6e-07 L=5e-07
X_M25 net3 A VDD VNW pfet_06v0 W=6.6e-07 L=5e-07
X_M26 VDD B net3 VNW pfet_06v0 W=6.6e-07 L=5e-07
X_M27 net3 CI VDD VNW pfet_06v0 W=6.6e-07 L=5e-07
X_M21 net7 CI net1 VNW pfet_06v0 W=7e-07 L=5e-07
X_M20 net19 B net7 VNW pfet_06v0 W=7e-07 L=5e-07
X_M18 VDD A net19 VNW pfet_06v0 W=7e-07 L=5e-07
X_M17 CO net7 VDD VNW pfet_06v0 W=1.215e-06 L=5e-07
X_M48 net47 B net49 VPW nfet_06v0 W=3.8e-07 L=6e-07
X_M41 net9 net7 net42 VPW nfet_06v0 W=3.8e-07 L=6e-07
X_M43 net42 A VSS VPW nfet_06v0 W=3.8e-07 L=6e-07
X_M44 VSS B net42 VPW nfet_06v0 W=3.8e-07 L=6e-07
X_M38 net7 CI net5 VPW nfet_06v0 W=3.8e-07 L=6e-07
X_M37 net36 B net7 VPW nfet_06v0 W=3.8e-07 L=6e-07
X_M35 VSS A net36 VPW nfet_06v0 W=3.8e-07 L=6e-07
X_M30 net29 B net31 VNW pfet_06v0 W=6.6e-07 L=5e-07
X_M23 VDD B net1 VNW pfet_06v0 W=7e-07 L=5e-07
X_M22 net1 A VDD VNW pfet_06v0 W=7e-07 L=5e-07
X_M50 net49 A VSS VPW nfet_06v0 W=3.8e-07 L=6e-07
X_M40 VSS B net5 VPW nfet_06v0 W=3.8e-07 L=6e-07
X_M39 net5 A VSS VPW nfet_06v0 W=3.8e-07 L=6e-07
X_M32 net31 A VDD VNW pfet_06v0 W=6.6e-07 L=5e-07
.ENDS


******* EOF

* Copyright 2022 GlobalFoundries PDK Authors
*
* Licensed under the Apache License, Version 2.0 (the "License");
* you may not use this file except in compliance with the License.
* You may obtain a copy of the License at
*
*      http://www.apache.org/licenses/LICENSE-2.0
*
* Unless required by applicable law or agreed to in writing, software
* distributed under the License is distributed on an "AS IS" BASIS,
* WITHOUT WARRANTIES OR CONDITIONS OF ANY KIND, either express or implied.
* See the License for the specific language governing permissions and
* limitations under the License.

.SUBCKT gf180mcu_fd_sc_mcu7t5v0__addf_2 A B CI CO S VDD VNW VPW VSS
X_M51_17 VSS net9 S VPW nfet_06v0 W=8.15e-07 L=6e-07
X_M51 VSS net9 S VPW nfet_06v0 W=8.15e-07 L=6e-07
X_M46 net9 CI net47 VPW nfet_06v0 W=3.8e-07 L=6e-07
X_M45 net42 CI VSS VPW nfet_06v0 W=3.8e-07 L=6e-07
X_M34 CO net7 VSS VPW nfet_06v0 W=8.15e-07 L=6e-07
X_M34_25 CO net7 VSS VPW nfet_06v0 W=8.15e-07 L=6e-07
X_M33_12 VDD net9 S VNW pfet_06v0 W=1.12e-06 L=5e-07
X_M33 VDD net9 S VNW pfet_06v0 W=1.12e-06 L=5e-07
X_M28 net9 CI net29 VNW pfet_06v0 W=6.8e-07 L=5e-07
X_M24 net9 net7 net3 VNW pfet_06v0 W=6.8e-07 L=5e-07
X_M25 net3 A VDD VNW pfet_06v0 W=6.8e-07 L=5e-07
X_M26 VDD B net3 VNW pfet_06v0 W=6.8e-07 L=5e-07
X_M27 net3 CI VDD VNW pfet_06v0 W=6.8e-07 L=5e-07
X_M21 net7 CI net1 VNW pfet_06v0 W=7.8e-07 L=5e-07
X_M20 net19 B net7 VNW pfet_06v0 W=7.8e-07 L=5e-07
X_M18 VDD A net19 VNW pfet_06v0 W=7.8e-07 L=5e-07
X_M17 CO net7 VDD VNW pfet_06v0 W=1.195e-06 L=5e-07
X_M17_23 CO net7 VDD VNW pfet_06v0 W=1.195e-06 L=5e-07
X_M48 net47 B net49 VPW nfet_06v0 W=3.8e-07 L=6e-07
X_M41 net9 net7 net42 VPW nfet_06v0 W=3.8e-07 L=6e-07
X_M43 net42 A VSS VPW nfet_06v0 W=3.8e-07 L=6e-07
X_M44 VSS B net42 VPW nfet_06v0 W=3.8e-07 L=6e-07
X_M38 net7 CI net5 VPW nfet_06v0 W=3.8e-07 L=6e-07
X_M37 net36 B net7 VPW nfet_06v0 W=3.8e-07 L=6e-07
X_M35 VSS A net36 VPW nfet_06v0 W=3.8e-07 L=6e-07
X_M30 net29 B net31 VNW pfet_06v0 W=6.8e-07 L=5e-07
X_M23 VDD B net1 VNW pfet_06v0 W=7.8e-07 L=5e-07
X_M22 net1 A VDD VNW pfet_06v0 W=7.8e-07 L=5e-07
X_M50 net49 A VSS VPW nfet_06v0 W=3.8e-07 L=6e-07
X_M40 VSS B net5 VPW nfet_06v0 W=3.8e-07 L=6e-07
X_M39 net5 A VSS VPW nfet_06v0 W=3.8e-07 L=6e-07
X_M32 net31 A VDD VNW pfet_06v0 W=6.8e-07 L=5e-07
.ENDS


******* EOF

* Copyright 2022 GlobalFoundries PDK Authors
*
* Licensed under the Apache License, Version 2.0 (the "License");
* you may not use this file except in compliance with the License.
* You may obtain a copy of the License at
*
*      http://www.apache.org/licenses/LICENSE-2.0
*
* Unless required by applicable law or agreed to in writing, software
* distributed under the License is distributed on an "AS IS" BASIS,
* WITHOUT WARRANTIES OR CONDITIONS OF ANY KIND, either express or implied.
* See the License for the specific language governing permissions and
* limitations under the License.

.SUBCKT gf180mcu_fd_sc_mcu7t5v0__addf_4 A B CI CO S VDD VNW VPW VSS
X_M51_17_0 VSS net9 S VPW nfet_06v0 W=8.15e-07 L=6e-07
X_M51_18 VSS net9 S VPW nfet_06v0 W=8.15e-07 L=6e-07
X_M51_17 VSS net9 S VPW nfet_06v0 W=8.15e-07 L=6e-07
X_M51 VSS net9 S VPW nfet_06v0 W=8.15e-07 L=6e-07
X_M46 net9 CI net47 VPW nfet_06v0 W=3.8e-07 L=6e-07
X_M45 net42 CI VSS VPW nfet_06v0 W=3.8e-07 L=6e-07
X_M34 CO net7 VSS VPW nfet_06v0 W=8.15e-07 L=6e-07
X_M34_25 CO net7 VSS VPW nfet_06v0 W=8.15e-07 L=6e-07
X_M34_53 CO net7 VSS VPW nfet_06v0 W=8.15e-07 L=6e-07
X_M34_25_56 CO net7 VSS VPW nfet_06v0 W=8.15e-07 L=6e-07
X_M33_12_23 VDD net9 S VNW pfet_06v0 W=1.095e-06 L=5e-07
X_M33_34 VDD net9 S VNW pfet_06v0 W=1.095e-06 L=5e-07
X_M33_12 VDD net9 S VNW pfet_06v0 W=1.095e-06 L=5e-07
X_M33 VDD net9 S VNW pfet_06v0 W=1.095e-06 L=5e-07
X_M28 net9 CI net29 VNW pfet_06v0 W=6.6e-07 L=5e-07
X_M24 net9 net7 net3 VNW pfet_06v0 W=6.6e-07 L=5e-07
X_M25 net3 A VDD VNW pfet_06v0 W=6.6e-07 L=5e-07
X_M26 VDD B net3 VNW pfet_06v0 W=6.6e-07 L=5e-07
X_M27 net3 CI VDD VNW pfet_06v0 W=6.6e-07 L=5e-07
X_M21 net7 CI net1 VNW pfet_06v0 W=7.8e-07 L=5e-07
X_M20 net19 B net7 VNW pfet_06v0 W=7.8e-07 L=5e-07
X_M18 VDD A net19 VNW pfet_06v0 W=7.8e-07 L=5e-07
X_M17 CO net7 VDD VNW pfet_06v0 W=1.215e-06 L=5e-07
X_M17_23 CO net7 VDD VNW pfet_06v0 W=1.215e-06 L=5e-07
X_M17_66 CO net7 VDD VNW pfet_06v0 W=1.215e-06 L=5e-07
X_M17_23_46 CO net7 VDD VNW pfet_06v0 W=1.215e-06 L=5e-07
X_M48 net47 B net49 VPW nfet_06v0 W=3.8e-07 L=6e-07
X_M41 net9 net7 net42 VPW nfet_06v0 W=3.8e-07 L=6e-07
X_M43 net42 A VSS VPW nfet_06v0 W=3.8e-07 L=6e-07
X_M44 VSS B net42 VPW nfet_06v0 W=3.8e-07 L=6e-07
X_M38 net7 CI net5 VPW nfet_06v0 W=3.8e-07 L=6e-07
X_M37 net36 B net7 VPW nfet_06v0 W=3.8e-07 L=6e-07
X_M35 VSS A net36 VPW nfet_06v0 W=3.8e-07 L=6e-07
X_M30 net29 B net31 VNW pfet_06v0 W=6.6e-07 L=5e-07
X_M23 VDD B net1 VNW pfet_06v0 W=7.8e-07 L=5e-07
X_M22 net1 A VDD VNW pfet_06v0 W=7.8e-07 L=5e-07
X_M50 net49 A VSS VPW nfet_06v0 W=3.8e-07 L=6e-07
X_M40 VSS B net5 VPW nfet_06v0 W=3.8e-07 L=6e-07
X_M39 net5 A VSS VPW nfet_06v0 W=3.8e-07 L=6e-07
X_M32 net31 A VDD VNW pfet_06v0 W=6.6e-07 L=5e-07
.ENDS


******* EOF

* Copyright 2022 GlobalFoundries PDK Authors
*
* Licensed under the Apache License, Version 2.0 (the "License");
* you may not use this file except in compliance with the License.
* You may obtain a copy of the License at
*
*      http://www.apache.org/licenses/LICENSE-2.0
*
* Unless required by applicable law or agreed to in writing, software
* distributed under the License is distributed on an "AS IS" BASIS,
* WITHOUT WARRANTIES OR CONDITIONS OF ANY KIND, either express or implied.
* See the License for the specific language governing permissions and
* limitations under the License.

.SUBCKT gf180mcu_fd_sc_mcu7t5v0__addh_1 A B CO S VDD VNW VPW VSS
X_i_2 VSS NCO CO VPW nfet_06v0 W=8.15e-07 L=6e-07
X_i_5 net_0 A VSS VPW nfet_06v0 W=4.8e-07 L=6e-07
X_i_4 NCO B net_0 VPW nfet_06v0 W=4.8e-07 L=6e-07
X_i_0 S NS VSS VPW nfet_06v0 W=8.15e-07 L=6e-07
X_i_3 VDD NCO CO VNW pfet_06v0 W=1.22e-06 L=5e-07
X_i_7 NCO A VDD VNW pfet_06v0 W=6.35e-07 L=5e-07
X_i_6 VDD B NCO VNW pfet_06v0 W=6.35e-07 L=5e-07
X_i_11 NS A net_2 VNW pfet_06v0 W=6.35e-07 L=5e-07
X_i_13 VDD NCO NS VNW pfet_06v0 W=6.35e-07 L=5e-07
X_i_1 S NS VDD VNW pfet_06v0 W=1.22e-06 L=5e-07
X_i_9 NS B net_1 VPW nfet_06v0 W=4.2e-07 L=6e-07
X_i_8 net_1 A NS VPW nfet_06v0 W=4.2e-07 L=6e-07
X_i_10 VSS NCO net_1 VPW nfet_06v0 W=4.2e-07 L=6e-07
X_i_12 net_2 B VDD VNW pfet_06v0 W=6.35e-07 L=5e-07
.ENDS


******* EOF

* Copyright 2022 GlobalFoundries PDK Authors
*
* Licensed under the Apache License, Version 2.0 (the "License");
* you may not use this file except in compliance with the License.
* You may obtain a copy of the License at
*
*      http://www.apache.org/licenses/LICENSE-2.0
*
* Unless required by applicable law or agreed to in writing, software
* distributed under the License is distributed on an "AS IS" BASIS,
* WITHOUT WARRANTIES OR CONDITIONS OF ANY KIND, either express or implied.
* See the License for the specific language governing permissions and
* limitations under the License.

.SUBCKT gf180mcu_fd_sc_mcu7t5v0__addh_2 A B CO S VDD VNW VPW VSS
X_i_2_1 CO NCO VSS VPW nfet_06v0 W=8.15e-07 L=6e-07
X_i_2_0 VSS NCO CO VPW nfet_06v0 W=8.15e-07 L=6e-07
X_i_5 net_0 A VSS VPW nfet_06v0 W=8.15e-07 L=6e-07
X_i_4 NCO B net_0 VPW nfet_06v0 W=8.15e-07 L=6e-07
X_i_0_1 S NS VSS VPW nfet_06v0 W=8.15e-07 L=6e-07
X_i_0_0 VSS NS S VPW nfet_06v0 W=8.15e-07 L=6e-07
X_i_3_1 CO NCO VDD VNW pfet_06v0 W=1.215e-06 L=5e-07
X_i_3_0 VDD NCO CO VNW pfet_06v0 W=1.215e-06 L=5e-07
X_i_7 NCO A VDD VNW pfet_06v0 W=1.215e-06 L=5e-07
X_i_6 VDD B NCO VNW pfet_06v0 W=1.215e-06 L=5e-07
X_i_11 NS A net_2 VNW pfet_06v0 W=9.75e-07 L=5e-07
X_i_13 VDD NCO NS VNW pfet_06v0 W=9.75e-07 L=5e-07
X_i_1_1 S NS VDD VNW pfet_06v0 W=9.75e-07 L=5e-07
X_i_1_0 VDD NS S VNW pfet_06v0 W=9.75e-07 L=5e-07
X_i_9 NS B net_1 VPW nfet_06v0 W=8.15e-07 L=6e-07
X_i_8 net_1 A NS VPW nfet_06v0 W=8.15e-07 L=6e-07
X_i_10 VSS NCO net_1 VPW nfet_06v0 W=8.15e-07 L=6e-07
X_i_12 net_2 B VDD VNW pfet_06v0 W=9.75e-07 L=5e-07
.ENDS


******* EOF

* Copyright 2022 GlobalFoundries PDK Authors
*
* Licensed under the Apache License, Version 2.0 (the "License");
* you may not use this file except in compliance with the License.
* You may obtain a copy of the License at
*
*      http://www.apache.org/licenses/LICENSE-2.0
*
* Unless required by applicable law or agreed to in writing, software
* distributed under the License is distributed on an "AS IS" BASIS,
* WITHOUT WARRANTIES OR CONDITIONS OF ANY KIND, either express or implied.
* See the License for the specific language governing permissions and
* limitations under the License.

.SUBCKT gf180mcu_fd_sc_mcu7t5v0__addh_4 A B CO S VDD VNW VPW VSS
X_i_5_1 net_0_0 A VSS VPW nfet_06v0 W=8.2e-07 L=6e-07
X_i_4_1 NCO B net_0_0 VPW nfet_06v0 W=8.2e-07 L=6e-07
X_i_4_0 net_0_1 B NCO VPW nfet_06v0 W=8.2e-07 L=6e-07
X_i_5_0 VSS A net_0_1 VPW nfet_06v0 W=8.2e-07 L=6e-07
X_i_10_0 net_1 NCO VSS VPW nfet_06v0 W=6.1e-07 L=6e-07
X_i_8_0 NS A net_1 VPW nfet_06v0 W=6.1e-07 L=6e-07
X_i_9_0 net_1 B NS VPW nfet_06v0 W=6.1e-07 L=6e-07
X_i_9_1 NS B net_1 VPW nfet_06v0 W=6.1e-07 L=6e-07
X_i_8_1 net_1 A NS VPW nfet_06v0 W=6.1e-07 L=6e-07
X_i_10_1 VSS NCO net_1 VPW nfet_06v0 W=6.1e-07 L=6e-07
X_i_2_3 CO NCO VSS VPW nfet_06v0 W=1.05e-06 L=6e-07
X_i_2_2 VSS NCO CO VPW nfet_06v0 W=1.05e-06 L=6e-07
X_i_2_1 CO NCO VSS VPW nfet_06v0 W=1.05e-06 L=6e-07
X_i_2_0 VSS NCO CO VPW nfet_06v0 W=1.05e-06 L=6e-07
X_i_0_3 S NS VSS VPW nfet_06v0 W=8.2e-07 L=6e-07
X_i_0_2 VSS NS S VPW nfet_06v0 W=8.2e-07 L=6e-07
X_i_0_1 S NS VSS VPW nfet_06v0 W=8.2e-07 L=6e-07
X_i_0_0 VSS NS S VPW nfet_06v0 W=8.2e-07 L=6e-07
X_i_7_1 NCO A VDD VNW pfet_06v0 W=9.9e-07 L=5e-07
X_i_6_1 VDD B NCO VNW pfet_06v0 W=9.9e-07 L=5e-07
X_i_6_0 NCO B VDD VNW pfet_06v0 W=9.9e-07 L=5e-07
X_i_7_0 VDD A NCO VNW pfet_06v0 W=9.9e-07 L=5e-07
X_i_13_0 NS NCO VDD VNW pfet_06v0 W=9.9e-07 L=5e-07
X_i_11_0 net_2_0 A NS VNW pfet_06v0 W=9.9e-07 L=5e-07
X_i_12_0 VDD B net_2_0 VNW pfet_06v0 W=9.9e-07 L=5e-07
X_i_12_1 net_2_1 B VDD VNW pfet_06v0 W=9.9e-07 L=5e-07
X_i_11_1 NS A net_2_1 VNW pfet_06v0 W=9.9e-07 L=5e-07
X_i_13_1 VDD NCO NS VNW pfet_06v0 W=9.9e-07 L=5e-07
X_i_3_3 CO NCO VDD VNW pfet_06v0 W=9.9e-07 L=5e-07
X_i_3_2 VDD NCO CO VNW pfet_06v0 W=9.9e-07 L=5e-07
X_i_3_1 CO NCO VDD VNW pfet_06v0 W=9.9e-07 L=5e-07
X_i_3_0 VDD NCO CO VNW pfet_06v0 W=9.9e-07 L=5e-07
X_i_1_3 S NS VDD VNW pfet_06v0 W=9.9e-07 L=5e-07
X_i_1_2 VDD NS S VNW pfet_06v0 W=9.9e-07 L=5e-07
X_i_1_1 S NS VDD VNW pfet_06v0 W=9.9e-07 L=5e-07
X_i_1_0 VDD NS S VNW pfet_06v0 W=9.9e-07 L=5e-07
.ENDS


******* EOF

* Copyright 2022 GlobalFoundries PDK Authors
*
* Licensed under the Apache License, Version 2.0 (the "License");
* you may not use this file except in compliance with the License.
* You may obtain a copy of the License at
*
*      http://www.apache.org/licenses/LICENSE-2.0
*
* Unless required by applicable law or agreed to in writing, software
* distributed under the License is distributed on an "AS IS" BASIS,
* WITHOUT WARRANTIES OR CONDITIONS OF ANY KIND, either express or implied.
* See the License for the specific language governing permissions and
* limitations under the License.

.SUBCKT gf180mcu_fd_sc_mcu7t5v0__and2_1 A1 A2 Z VDD VNW VPW VSS
X_i_2 net_0 A1 Z_neg VPW nfet_06v0 W=3.65e-07 L=6e-07
X_i_3 VSS A2 net_0 VPW nfet_06v0 W=3.65e-07 L=6e-07
X_i_0 Z Z_neg VSS VPW nfet_06v0 W=8.15e-07 L=6e-07
X_i_4 Z_neg A1 VDD VNW pfet_06v0 W=6e-07 L=5e-07
X_i_5 VDD A2 Z_neg VNW pfet_06v0 W=6e-07 L=5e-07
X_i_1 Z Z_neg VDD VNW pfet_06v0 W=1.215e-06 L=5e-07
.ENDS


******* EOF

* Copyright 2022 GlobalFoundries PDK Authors
*
* Licensed under the Apache License, Version 2.0 (the "License");
* you may not use this file except in compliance with the License.
* You may obtain a copy of the License at
*
*      http://www.apache.org/licenses/LICENSE-2.0
*
* Unless required by applicable law or agreed to in writing, software
* distributed under the License is distributed on an "AS IS" BASIS,
* WITHOUT WARRANTIES OR CONDITIONS OF ANY KIND, either express or implied.
* See the License for the specific language governing permissions and
* limitations under the License.

.SUBCKT gf180mcu_fd_sc_mcu7t5v0__and2_2 A1 A2 Z VDD VNW VPW VSS
X_i_2 net_0 A1 Z_neg VPW nfet_06v0 W=8.15e-07 L=6e-07
X_i_3 VSS A2 net_0 VPW nfet_06v0 W=8.15e-07 L=6e-07
X_i_0_0 Z Z_neg VSS VPW nfet_06v0 W=8.15e-07 L=6e-07
X_i_0_1 VSS Z_neg Z VPW nfet_06v0 W=8.15e-07 L=6e-07
X_i_4 Z_neg A1 VDD VNW pfet_06v0 W=1.07e-06 L=5e-07
X_i_5 VDD A2 Z_neg VNW pfet_06v0 W=1.07e-06 L=5e-07
X_i_1_0 Z Z_neg VDD VNW pfet_06v0 W=1.215e-06 L=5e-07
X_i_1_1 VDD Z_neg Z VNW pfet_06v0 W=1.215e-06 L=5e-07
.ENDS


******* EOF

* Copyright 2022 GlobalFoundries PDK Authors
*
* Licensed under the Apache License, Version 2.0 (the "License");
* you may not use this file except in compliance with the License.
* You may obtain a copy of the License at
*
*      http://www.apache.org/licenses/LICENSE-2.0
*
* Unless required by applicable law or agreed to in writing, software
* distributed under the License is distributed on an "AS IS" BASIS,
* WITHOUT WARRANTIES OR CONDITIONS OF ANY KIND, either express or implied.
* See the License for the specific language governing permissions and
* limitations under the License.

.SUBCKT gf180mcu_fd_sc_mcu7t5v0__and2_4 A1 A2 Z VDD VNW VPW VSS
X_i_3_1 net_0_1 A2 VSS VPW nfet_06v0 W=7.75e-07 L=6e-07
X_i_2_1 Z_neg A1 net_0_1 VPW nfet_06v0 W=7.75e-07 L=6e-07
X_i_2_0 net_0_0 A1 Z_neg VPW nfet_06v0 W=7.75e-07 L=6e-07
X_i_3_0 VSS A2 net_0_0 VPW nfet_06v0 W=7.75e-07 L=6e-07
X_i_0_3 Z Z_neg VSS VPW nfet_06v0 W=7.75e-07 L=6e-07
X_i_0_2 VSS Z_neg Z VPW nfet_06v0 W=7.75e-07 L=6e-07
X_i_0_1 Z Z_neg VSS VPW nfet_06v0 W=7.75e-07 L=6e-07
X_i_0_0 VSS Z_neg Z VPW nfet_06v0 W=7.75e-07 L=6e-07
X_i_5_1 Z_neg A2 VDD VNW pfet_06v0 W=1.125e-06 L=5e-07
X_i_4_1 VDD A1 Z_neg VNW pfet_06v0 W=1.125e-06 L=5e-07
X_i_4_0 Z_neg A1 VDD VNW pfet_06v0 W=1.125e-06 L=5e-07
X_i_5_0 VDD A2 Z_neg VNW pfet_06v0 W=1.125e-06 L=5e-07
X_i_1_3 Z Z_neg VDD VNW pfet_06v0 W=1.215e-06 L=5e-07
X_i_1_2 VDD Z_neg Z VNW pfet_06v0 W=1.215e-06 L=5e-07
X_i_1_1 Z Z_neg VDD VNW pfet_06v0 W=1.215e-06 L=5e-07
X_i_1_0 VDD Z_neg Z VNW pfet_06v0 W=1.215e-06 L=5e-07
.ENDS


******* EOF

* Copyright 2022 GlobalFoundries PDK Authors
*
* Licensed under the Apache License, Version 2.0 (the "License");
* you may not use this file except in compliance with the License.
* You may obtain a copy of the License at
*
*      http://www.apache.org/licenses/LICENSE-2.0
*
* Unless required by applicable law or agreed to in writing, software
* distributed under the License is distributed on an "AS IS" BASIS,
* WITHOUT WARRANTIES OR CONDITIONS OF ANY KIND, either express or implied.
* See the License for the specific language governing permissions and
* limitations under the License.

.SUBCKT gf180mcu_fd_sc_mcu7t5v0__and3_1 A1 A2 A3 Z VDD VNW VPW VSS
X_i_2 net_0 A1 Z_neg VPW nfet_06v0 W=3.8e-07 L=6e-07
X_i_3 net_1 A2 net_0 VPW nfet_06v0 W=3.8e-07 L=6e-07
X_i_4 VSS A3 net_1 VPW nfet_06v0 W=3.8e-07 L=6e-07
X_i_0 Z Z_neg VSS VPW nfet_06v0 W=7.75e-07 L=6e-07
X_i_5 VDD A1 Z_neg VNW pfet_06v0 W=5.35e-07 L=5e-07
X_i_6 Z_neg A2 VDD VNW pfet_06v0 W=5.35e-07 L=5e-07
X_i_7 VDD A3 Z_neg VNW pfet_06v0 W=5.35e-07 L=5e-07
X_i_1 Z Z_neg VDD VNW pfet_06v0 W=1.215e-06 L=5e-07
.ENDS


******* EOF

* Copyright 2022 GlobalFoundries PDK Authors
*
* Licensed under the Apache License, Version 2.0 (the "License");
* you may not use this file except in compliance with the License.
* You may obtain a copy of the License at
*
*      http://www.apache.org/licenses/LICENSE-2.0
*
* Unless required by applicable law or agreed to in writing, software
* distributed under the License is distributed on an "AS IS" BASIS,
* WITHOUT WARRANTIES OR CONDITIONS OF ANY KIND, either express or implied.
* See the License for the specific language governing permissions and
* limitations under the License.

.SUBCKT gf180mcu_fd_sc_mcu7t5v0__and3_2 A1 A2 A3 Z VDD VNW VPW VSS
X_i_2 net_0 A1 Z_neg VPW nfet_06v0 W=8.15e-07 L=6e-07
X_i_3 net_1 A2 net_0 VPW nfet_06v0 W=8.15e-07 L=6e-07
X_i_4 VSS A3 net_1 VPW nfet_06v0 W=8.15e-07 L=6e-07
X_i_0_0 Z Z_neg VSS VPW nfet_06v0 W=8.15e-07 L=6e-07
X_i_0_1 VSS Z_neg Z VPW nfet_06v0 W=8.15e-07 L=6e-07
X_i_5 VDD A1 Z_neg VNW pfet_06v0 W=9.85e-07 L=5e-07
X_i_6 Z_neg A2 VDD VNW pfet_06v0 W=9.85e-07 L=5e-07
X_i_7 VDD A3 Z_neg VNW pfet_06v0 W=9.85e-07 L=5e-07
X_i_1_0 Z Z_neg VDD VNW pfet_06v0 W=1.215e-06 L=5e-07
X_i_1_1 VDD Z_neg Z VNW pfet_06v0 W=1.215e-06 L=5e-07
.ENDS


******* EOF

* Copyright 2022 GlobalFoundries PDK Authors
*
* Licensed under the Apache License, Version 2.0 (the "License");
* you may not use this file except in compliance with the License.
* You may obtain a copy of the License at
*
*      http://www.apache.org/licenses/LICENSE-2.0
*
* Unless required by applicable law or agreed to in writing, software
* distributed under the License is distributed on an "AS IS" BASIS,
* WITHOUT WARRANTIES OR CONDITIONS OF ANY KIND, either express or implied.
* See the License for the specific language governing permissions and
* limitations under the License.

.SUBCKT gf180mcu_fd_sc_mcu7t5v0__and3_4 A1 A2 A3 Z VDD VNW VPW VSS
X_i_4_0 net_1_1 A3 VSS VPW nfet_06v0 W=7.6e-07 L=6e-07
X_i_3_1 net_0_1 A2 net_1_1 VPW nfet_06v0 W=7.6e-07 L=6e-07
X_i_2_1 Z_neg A1 net_0_1 VPW nfet_06v0 W=7.6e-07 L=6e-07
X_i_2_0 net_0_0 A1 Z_neg VPW nfet_06v0 W=7.6e-07 L=6e-07
X_i_3_0 net_1_0 A2 net_0_0 VPW nfet_06v0 W=7.6e-07 L=6e-07
X_i_4_1 VSS A3 net_1_0 VPW nfet_06v0 W=7.6e-07 L=6e-07
X_i_0_3 Z Z_neg VSS VPW nfet_06v0 W=7.6e-07 L=6e-07
X_i_0_2 VSS Z_neg Z VPW nfet_06v0 W=7.6e-07 L=6e-07
X_i_0_1 Z Z_neg VSS VPW nfet_06v0 W=7.6e-07 L=6e-07
X_i_0_0 VSS Z_neg Z VPW nfet_06v0 W=7.6e-07 L=6e-07
X_i_7_0 Z_neg A3 VDD VNW pfet_06v0 W=1.22e-06 L=5e-07
X_i_6_1 VDD A2 Z_neg VNW pfet_06v0 W=1.22e-06 L=5e-07
X_i_5_1 Z_neg A1 VDD VNW pfet_06v0 W=1.22e-06 L=5e-07
X_i_5_0 VDD A1 Z_neg VNW pfet_06v0 W=1.22e-06 L=5e-07
X_i_6_0 Z_neg A2 VDD VNW pfet_06v0 W=1.22e-06 L=5e-07
X_i_7_1 VDD A3 Z_neg VNW pfet_06v0 W=1.22e-06 L=5e-07
X_i_1_3 Z Z_neg VDD VNW pfet_06v0 W=1.22e-06 L=5e-07
X_i_1_2 VDD Z_neg Z VNW pfet_06v0 W=1.22e-06 L=5e-07
X_i_1_1 Z Z_neg VDD VNW pfet_06v0 W=1.22e-06 L=5e-07
X_i_1_0 VDD Z_neg Z VNW pfet_06v0 W=1.22e-06 L=5e-07
.ENDS


******* EOF

* Copyright 2022 GlobalFoundries PDK Authors
*
* Licensed under the Apache License, Version 2.0 (the "License");
* you may not use this file except in compliance with the License.
* You may obtain a copy of the License at
*
*      http://www.apache.org/licenses/LICENSE-2.0
*
* Unless required by applicable law or agreed to in writing, software
* distributed under the License is distributed on an "AS IS" BASIS,
* WITHOUT WARRANTIES OR CONDITIONS OF ANY KIND, either express or implied.
* See the License for the specific language governing permissions and
* limitations under the License.

.SUBCKT gf180mcu_fd_sc_mcu7t5v0__and4_1 A1 A2 A3 A4 Z VDD VNW VPW VSS
X_i_2 net_0 A1 Z_neg VPW nfet_06v0 W=4.2e-07 L=6e-07
X_i_3 net_1 A2 net_0 VPW nfet_06v0 W=4.2e-07 L=6e-07
X_i_4 net_2 A3 net_1 VPW nfet_06v0 W=4.2e-07 L=6e-07
X_i_5 VSS A4 net_2 VPW nfet_06v0 W=4.2e-07 L=6e-07
X_i_0 Z Z_neg VSS VPW nfet_06v0 W=8.15e-07 L=6e-07
X_i_6 Z_neg A1 VDD VNW pfet_06v0 W=6e-07 L=5e-07
X_i_7 VDD A2 Z_neg VNW pfet_06v0 W=6e-07 L=5e-07
X_i_8 Z_neg A3 VDD VNW pfet_06v0 W=6e-07 L=5e-07
X_i_9 VDD A4 Z_neg VNW pfet_06v0 W=6e-07 L=5e-07
X_i_1 Z Z_neg VDD VNW pfet_06v0 W=1.22e-06 L=5e-07
.ENDS


******* EOF

* Copyright 2022 GlobalFoundries PDK Authors
*
* Licensed under the Apache License, Version 2.0 (the "License");
* you may not use this file except in compliance with the License.
* You may obtain a copy of the License at
*
*      http://www.apache.org/licenses/LICENSE-2.0
*
* Unless required by applicable law or agreed to in writing, software
* distributed under the License is distributed on an "AS IS" BASIS,
* WITHOUT WARRANTIES OR CONDITIONS OF ANY KIND, either express or implied.
* See the License for the specific language governing permissions and
* limitations under the License.

.SUBCKT gf180mcu_fd_sc_mcu7t5v0__and4_2 A1 A2 A3 A4 Z VDD VNW VPW VSS
X_i_2 net_0 A1 Z_neg VPW nfet_06v0 W=8.2e-07 L=6e-07
X_i_3 net_1 A2 net_0 VPW nfet_06v0 W=8.2e-07 L=6e-07
X_i_4 net_2 A3 net_1 VPW nfet_06v0 W=8.2e-07 L=6e-07
X_i_5 VSS A4 net_2 VPW nfet_06v0 W=8.2e-07 L=6e-07
X_i_0_0 Z Z_neg VSS VPW nfet_06v0 W=8.2e-07 L=6e-07
X_i_0_1 VSS Z_neg Z VPW nfet_06v0 W=8.2e-07 L=6e-07
X_i_6 Z_neg A1 VDD VNW pfet_06v0 W=8.55e-07 L=5e-07
X_i_7 VDD A2 Z_neg VNW pfet_06v0 W=8.55e-07 L=5e-07
X_i_8 Z_neg A3 VDD VNW pfet_06v0 W=8.55e-07 L=5e-07
X_i_9 VDD A4 Z_neg VNW pfet_06v0 W=8.55e-07 L=5e-07
X_i_1_0 Z Z_neg VDD VNW pfet_06v0 W=1.22e-06 L=5e-07
X_i_1_1 VDD Z_neg Z VNW pfet_06v0 W=1.22e-06 L=5e-07
.ENDS


******* EOF

* Copyright 2022 GlobalFoundries PDK Authors
*
* Licensed under the Apache License, Version 2.0 (the "License");
* you may not use this file except in compliance with the License.
* You may obtain a copy of the License at
*
*      http://www.apache.org/licenses/LICENSE-2.0
*
* Unless required by applicable law or agreed to in writing, software
* distributed under the License is distributed on an "AS IS" BASIS,
* WITHOUT WARRANTIES OR CONDITIONS OF ANY KIND, either express or implied.
* See the License for the specific language governing permissions and
* limitations under the License.

.SUBCKT gf180mcu_fd_sc_mcu7t5v0__and4_4 A1 A2 A3 A4 Z VDD VNW VPW VSS
X_i_5_1 net_2_1 A4 VSS VPW nfet_06v0 W=6.45e-07 L=6e-07
X_i_4_1 net_1_1 A3 net_2_1 VPW nfet_06v0 W=6.45e-07 L=6e-07
X_i_3_1 net_0_1 A2 net_1_1 VPW nfet_06v0 W=6.45e-07 L=6e-07
X_i_2_1 Z_neg A1 net_0_1 VPW nfet_06v0 W=6.45e-07 L=6e-07
X_i_2_0 net_0_0 A1 Z_neg VPW nfet_06v0 W=6.45e-07 L=6e-07
X_i_3_0 net_1_0 A2 net_0_0 VPW nfet_06v0 W=6.45e-07 L=6e-07
X_i_4_0 net_2_0 A3 net_1_0 VPW nfet_06v0 W=6.45e-07 L=6e-07
X_i_5_0 VSS A4 net_2_0 VPW nfet_06v0 W=6.45e-07 L=6e-07
X_i_0_3 Z Z_neg VSS VPW nfet_06v0 W=6.45e-07 L=6e-07
X_i_0_2 VSS Z_neg Z VPW nfet_06v0 W=6.45e-07 L=6e-07
X_i_0_1 Z Z_neg VSS VPW nfet_06v0 W=6.45e-07 L=6e-07
X_i_0_0 VSS Z_neg Z VPW nfet_06v0 W=6.45e-07 L=6e-07
X_i_9_1 Z_neg A4 VDD VNW pfet_06v0 W=1.11e-06 L=5e-07
X_i_8_1 VDD A3 Z_neg VNW pfet_06v0 W=1.11e-06 L=5e-07
X_i_7_1 Z_neg A2 VDD VNW pfet_06v0 W=1.11e-06 L=5e-07
X_i_6_1 VDD A1 Z_neg VNW pfet_06v0 W=1.11e-06 L=5e-07
X_i_6_0 Z_neg A1 VDD VNW pfet_06v0 W=1.11e-06 L=5e-07
X_i_7_0 VDD A2 Z_neg VNW pfet_06v0 W=1.11e-06 L=5e-07
X_i_8_0 Z_neg A3 VDD VNW pfet_06v0 W=1.11e-06 L=5e-07
X_i_9_0 VDD A4 Z_neg VNW pfet_06v0 W=1.11e-06 L=5e-07
X_i_1_3 Z Z_neg VDD VNW pfet_06v0 W=1.22e-06 L=5e-07
X_i_1_2 VDD Z_neg Z VNW pfet_06v0 W=1.22e-06 L=5e-07
X_i_1_1 Z Z_neg VDD VNW pfet_06v0 W=1.22e-06 L=5e-07
X_i_1_0 VDD Z_neg Z VNW pfet_06v0 W=1.22e-06 L=5e-07
.ENDS


******* EOF

* Copyright 2022 GlobalFoundries PDK Authors
*
* Licensed under the Apache License, Version 2.0 (the "License");
* you may not use this file except in compliance with the License.
* You may obtain a copy of the License at
*
*      http://www.apache.org/licenses/LICENSE-2.0
*
* Unless required by applicable law or agreed to in writing, software
* distributed under the License is distributed on an "AS IS" BASIS,
* WITHOUT WARRANTIES OR CONDITIONS OF ANY KIND, either express or implied.
* See the License for the specific language governing permissions and
* limitations under the License.

.SUBCKT gf180mcu_fd_sc_mcu7t5v0__antenna I VDD VNW VPW VSS
D0 VPW I diode_nd2ps_06v0 AREA=0.2052p PJ=1.86u M=1
D1 I VNW diode_pd2nw_06v0 AREA=0.2052p PJ=1.86u M=1
.ENDS


******* EOF

* Copyright 2022 GlobalFoundries PDK Authors
*
* Licensed under the Apache License, Version 2.0 (the "License");
* you may not use this file except in compliance with the License.
* You may obtain a copy of the License at
*
*      http://www.apache.org/licenses/LICENSE-2.0
*
* Unless required by applicable law or agreed to in writing, software
* distributed under the License is distributed on an "AS IS" BASIS,
* WITHOUT WARRANTIES OR CONDITIONS OF ANY KIND, either express or implied.
* See the License for the specific language governing permissions and
* limitations under the License.

.SUBCKT gf180mcu_fd_sc_mcu7t5v0__aoi21_1 A1 A2 B ZN VDD VNW VPW VSS
X_i_1 net_0 A2 VSS VPW nfet_06v0 W=8.2e-07 L=6e-07
X_i_0 ZN A1 net_0 VPW nfet_06v0 W=8.2e-07 L=6e-07
X_i_2 VSS B ZN VPW nfet_06v0 W=5.1e-07 L=6e-07
X_i_4 ZN A2 net_1 VNW pfet_06v0 W=1.215e-06 L=5e-07
X_i_3 net_1 A1 ZN VNW pfet_06v0 W=1.215e-06 L=5e-07
X_i_5 VDD B net_1 VNW pfet_06v0 W=1.215e-06 L=5e-07
.ENDS


******* EOF

* Copyright 2022 GlobalFoundries PDK Authors
*
* Licensed under the Apache License, Version 2.0 (the "License");
* you may not use this file except in compliance with the License.
* You may obtain a copy of the License at
*
*      http://www.apache.org/licenses/LICENSE-2.0
*
* Unless required by applicable law or agreed to in writing, software
* distributed under the License is distributed on an "AS IS" BASIS,
* WITHOUT WARRANTIES OR CONDITIONS OF ANY KIND, either express or implied.
* See the License for the specific language governing permissions and
* limitations under the License.

.SUBCKT gf180mcu_fd_sc_mcu7t5v0__aoi21_2 A1 A2 B ZN VDD VNW VPW VSS
X_i_2_0 ZN B VSS VPW nfet_06v0 W=5.65e-07 L=6e-07
X_i_2_1 VSS B ZN VPW nfet_06v0 W=5.65e-07 L=6e-07
X_i_1_0 net_0_0 A2 VSS VPW nfet_06v0 W=7.75e-07 L=6e-07
X_i_0_1 ZN A1 net_0_0 VPW nfet_06v0 W=7.75e-07 L=6e-07
X_i_0_0 net_0_1 A1 ZN VPW nfet_06v0 W=7.75e-07 L=6e-07
X_i_1_1 VSS A2 net_0_1 VPW nfet_06v0 W=7.75e-07 L=6e-07
X_i_5_0 VDD B net_1 VNW pfet_06v0 W=1.215e-06 L=5e-07
X_i_5_1 net_1 B VDD VNW pfet_06v0 W=1.215e-06 L=5e-07
X_i_4_0 ZN A2 net_1 VNW pfet_06v0 W=1.215e-06 L=5e-07
X_i_3_1 net_1 A1 ZN VNW pfet_06v0 W=1.215e-06 L=5e-07
X_i_3_0 ZN A1 net_1 VNW pfet_06v0 W=1.215e-06 L=5e-07
X_i_4_1 net_1 A2 ZN VNW pfet_06v0 W=1.215e-06 L=5e-07
.ENDS


******* EOF

* Copyright 2022 GlobalFoundries PDK Authors
*
* Licensed under the Apache License, Version 2.0 (the "License");
* you may not use this file except in compliance with the License.
* You may obtain a copy of the License at
*
*      http://www.apache.org/licenses/LICENSE-2.0
*
* Unless required by applicable law or agreed to in writing, software
* distributed under the License is distributed on an "AS IS" BASIS,
* WITHOUT WARRANTIES OR CONDITIONS OF ANY KIND, either express or implied.
* See the License for the specific language governing permissions and
* limitations under the License.

.SUBCKT gf180mcu_fd_sc_mcu7t5v0__aoi21_4 A1 A2 B ZN VDD VNW VPW VSS
X_i_1_3 net_0_0 A2 VSS VPW nfet_06v0 W=8.2e-07 L=6e-07
X_i_0_3 ZN A1 net_0_0 VPW nfet_06v0 W=8.2e-07 L=6e-07
X_i_0_2 net_0_1 A1 ZN VPW nfet_06v0 W=8.2e-07 L=6e-07
X_i_1_2 VSS A2 net_0_1 VPW nfet_06v0 W=8.2e-07 L=6e-07
X_i_1_1 net_0_2 A2 VSS VPW nfet_06v0 W=8.2e-07 L=6e-07
X_i_0_1 ZN A1 net_0_2 VPW nfet_06v0 W=8.2e-07 L=6e-07
X_i_0_0 net_0_3 A1 ZN VPW nfet_06v0 W=8.2e-07 L=6e-07
X_i_1_0 VSS A2 net_0_3 VPW nfet_06v0 W=8.2e-07 L=6e-07
X_i_2_3 ZN B VSS VPW nfet_06v0 W=5.1e-07 L=6e-07
X_i_2_2 VSS B ZN VPW nfet_06v0 W=5.1e-07 L=6e-07
X_i_2_1 ZN B VSS VPW nfet_06v0 W=5.1e-07 L=6e-07
X_i_2_0 VSS B ZN VPW nfet_06v0 W=5.1e-07 L=6e-07
X_i_4_3 ZN A2 net_1 VNW pfet_06v0 W=1.2e-06 L=5e-07
X_i_3_3 net_1 A1 ZN VNW pfet_06v0 W=1.2e-06 L=5e-07
X_i_3_2 ZN A1 net_1 VNW pfet_06v0 W=1.2e-06 L=5e-07
X_i_4_2 net_1 A2 ZN VNW pfet_06v0 W=1.2e-06 L=5e-07
X_i_4_1 ZN A2 net_1 VNW pfet_06v0 W=1.2e-06 L=5e-07
X_i_3_1 net_1 A1 ZN VNW pfet_06v0 W=1.2e-06 L=5e-07
X_i_3_0 ZN A1 net_1 VNW pfet_06v0 W=1.2e-06 L=5e-07
X_i_4_0 net_1 A2 ZN VNW pfet_06v0 W=1.2e-06 L=5e-07
X_i_5_3 VDD B net_1 VNW pfet_06v0 W=1.2e-06 L=5e-07
X_i_5_2 net_1 B VDD VNW pfet_06v0 W=1.2e-06 L=5e-07
X_i_5_1 VDD B net_1 VNW pfet_06v0 W=1.2e-06 L=5e-07
X_i_5_0 net_1 B VDD VNW pfet_06v0 W=1.2e-06 L=5e-07
.ENDS


******* EOF

* Copyright 2022 GlobalFoundries PDK Authors
*