* Copyright 2020 The SkyWater PDK Authors
*
* Licensed under the Apache License, Version 2.0 (the "License");
* you may not use this file except in compliance with the License.
* You may obtain a copy of the License at
*
*     https://www.apache.org/licenses/LICENSE-2.0
*
* Unless required by applicable law or agreed to in writing, software
* distributed under the License is distributed on an "AS IS" BASIS,
* WITHOUT WARRANTIES OR CONDITIONS OF ANY KIND, either express or implied.
* See the License for the specific language governing permissions and
* limitations under the License.

* SKY130 Spice File.
.param sky130_fd_pr__nfet_01v8_lvt__toxe_slope_spectre = 0.0
.param sky130_fd_pr__nfet_01v8_lvt__vth0_slope_spectre = 0.0
.param sky130_fd_pr__nfet_01v8_lvt__voff_slope_spectre = 0.0
.param sky130_fd_pr__nfet_01v8_lvt__nfactor_slope_spectre = 0.0
* statistics {
*   process {
*   }
*   mismatch {
*     vary sky130_fd_pr__nfet_01v8_lvt__toxe_slope_spectre dist=gauss std = 1.0
*     vary sky130_fd_pr__nfet_01v8_lvt__vth0_slope_spectre dist=gauss std = 1.0
*     vary sky130_fd_pr__nfet_01v8_lvt__voff_slope_spectre dist=gauss std = 1.0
*     vary sky130_fd_pr__nfet_01v8_lvt__nfactor_slope_spectre dist=gauss std = 1.0
*   }
* }
.subckt  sky130_fd_pr__nfet_01v8_lvt d g s b
+ 
.param  l = 1 w = 1 ad = 0 as = 0 pd = 0 ps = 0 nrd = 0 nrs = 0 sa = 0 sb = 0 sd = 0 mult = 1 nf = 1.0
msky130_fd_pr__nfet_01v8_lvt d g s b sky130_fd_pr__nfet_01v8_lvt__model l = {l} w = {w} ad = {ad} as = {as} pd = {pd} ps = {ps} nrd = {nrd} nrs = {nrs} sa = {sa} sb = {sb} sd = {sd} nf = {nf}
.model sky130_fd_pr__nfet_01v8_lvt__model.0 nmos
* DC IV MOS Parameters
+ lmin = 9.95e-07 lmax = 1.005e-06 wmin = 9.95e-07 wmax = 1.005e-6
+ level = 54.0
+ tnom = 30.0
+ version = 4.5
+ toxm = 4.148e-9
+ xj = 1.5e-7
+ lln = 1.0
+ lwn = 1.0
+ wln = 1.0
+ wwn = 1.0
+ lint = {1.2025e-008+sky130_fd_pr__nfet_01v8_lvt__lint_diff}
+ ll = 0.0
+ lw = 0.0
+ lwl = 0.0
+ wint = {2.6e-008+sky130_fd_pr__nfet_01v8_lvt__wint_diff}
+ wl = 0.0
+ ww = 0.0
+ wwl = 0.0
+ xl = 0.0
+ xw = 0.0
+ mobmod = 0.0
+ binunit = 2.0
+ dwg = -1.33e-8
+ dwb = -1.08e-8
* BSIM4 - Model Selectors
+ igcmod = 0.0
+ igbmod = 0.0
+ rgatemod = 0.0
+ rbodymod = 1.0
+ trnqsmod = 0.0
+ acnqsmod = 0.0
+ fnoimod = 1.0
+ tnoimod = 1.0
+ permod = 1.0
+ geomod = 0.0
+ rdsmod = 0.0
+ tempmod = 0.0
+ lintnoi = -3.0e-7
+ vfbsdoff = 0.0
+ lambda = 0.0
+ vtl = 0.0
+ lc = 0.0
+ xn = 0.0
+ rnoia = 0.912
+ rnoib = 0.26
+ tnoia = 2.5e+7
+ tnoib = 9.9e+6
* BSIM4 - Process Parameters
+ epsrox = 3.9
+ toxe = {4.148e-009*sky130_fd_pr__nfet_01v8_lvt__toxe_mult+sky130_fd_pr__nfet_01v8_lvt__toxe_slope_spectre*(4.148e-09*sky130_fd_pr__nfet_01v8_lvt__toxe_mult*(sky130_fd_pr__nfet_01v8_lvt__toxe_slope/sqrt(l*w*mult)))}
+ dtox = 0.0
+ ndep = 1.7e+17
+ nsd = 1.0e+20
+ rshg = 0.1
+ rsh = {1*sky130_fd_pr__nfet_01v8_lvt__rshn_mult}
* Threshold Voltage Parameters
+ vth0 = {0.44292+sky130_fd_pr__nfet_01v8_lvt__vth0_diff_0+sky130_fd_pr__nfet_01v8_lvt__vth0_slope_spectre*(sky130_fd_pr__nfet_01v8_lvt__vth0_slope/sqrt(l*w*mult))}
+ k1 = 0.45748
+ k2 = {-0.040708+sky130_fd_pr__nfet_01v8_lvt__k2_diff_0}
+ k3 = 1.65
+ dvt0 = 0.07665
+ dvt1 = 0.1252
+ dvt2 = -0.05637
+ dvt0w = 0.0
+ dvt1w = 5300000.0
+ dvt2w = -0.032
+ w0 = 1.0e-7
+ k3b = 1.6
+ vfb = 0.0
* NEW BSIM4 Parameters for Level 54
+ phin = 0.0
+ lpe0 = 2.3802e-7
+ lpeb = -4.9152e-8
+ vbm = -3.0
+ dvtp0 = 0.0
+ dvtp1 = 0.0
* Mobility Parameters
+ vsat = {84096+sky130_fd_pr__nfet_01v8_lvt__vsat_diff_0}
+ ua = {-1.5106e-009+sky130_fd_pr__nfet_01v8_lvt__ua_diff_0}
+ ub = {2.3749e-018+sky130_fd_pr__nfet_01v8_lvt__ub_diff_0}
+ uc = 4.4533e-11
+ rdsw = {103.65+sky130_fd_pr__nfet_01v8_lvt__rdsw_diff_0}
+ prwb = 0.0
+ prwg = 0.0
+ wr = 1.0
+ u0 = {0.026527+sky130_fd_pr__nfet_01v8_lvt__u0_diff_0}
+ a0 = {1.5497+sky130_fd_pr__nfet_01v8_lvt__a0_diff_0}
+ keta = {-0.11251+sky130_fd_pr__nfet_01v8_lvt__keta_diff_0}
+ a1 = 0.0
+ a2 = 0.38689047
+ ags = {1.8405+sky130_fd_pr__nfet_01v8_lvt__ags_diff_0}
+ b0 = {0+sky130_fd_pr__nfet_01v8_lvt__b0_diff_0}
+ b1 = {0+sky130_fd_pr__nfet_01v8_lvt__b1_diff_0}
* BSIM4 - Mobility Parameters
+ eu = 1.67
+ rdswmin = 0.0
+ rdw = 0.0
+ rdwmin = 0.0
+ rsw = 0.0
+ rswmin = 0.0
* Subthreshold Current Parameters
+ voff = {-0.11515019+sky130_fd_pr__nfet_01v8_lvt__voff_diff_0+sky130_fd_pr__nfet_01v8_lvt__voff_slope_spectre*(sky130_fd_pr__nfet_01v8_lvt__voff_slope/sqrt(l*w*mult))}
+ nfactor = {1.0396987+sky130_fd_pr__nfet_01v8_lvt__nfactor_diff_0+sky130_fd_pr__nfet_01v8_lvt__nfactor_slope_spectre*(sky130_fd_pr__nfet_01v8_lvt__nfactor_slope/sqrt(l*w*mult))}
+ up = 0.0
+ ud = 0.0
+ lp = 1.0
+ tvfbsdoff = 0.0
+ tvoff = {0+sky130_fd_pr__nfet_01v8_lvt__tvoff_diff_0}
+ cit = 5.0e-6
+ cdsc = 3.8556e-37
+ cdscb = -0.00011484
+ cdscd = 4.7984e-6
+ eta0 = {0.00043348+sky130_fd_pr__nfet_01v8_lvt__eta0_diff_0}
+ etab = -0.00047191
+ dsub = 0.57273167
* BSIM4 - Sub-threshold parameters
+ voffl = 0.0
+ minv = 0.0
* Rout Parameters
+ pclm = {0.21192+sky130_fd_pr__nfet_01v8_lvt__pclm_diff_0}
+ pdiblc1 = 0.39
+ pdiblc2 = 0.014693
+ pdiblcb = 0.0
+ drout = 3.4946
+ pscbe1 = 4.5e+8
+ pscbe2 = 1.0e-8
+ pvag = 0.0
+ delta = 0.01
+ alpha0 = 4.7058626e-5
+ alpha1 = 0.0
+ beta0 = 20.772941
* BSIM4 - Rout Parameters
+ fprout = 0.0
+ pdits = {1.4427e-015+sky130_fd_pr__nfet_01v8_lvt__pdits_diff_0}
+ pditsl = 0.0
+ pditsd = {0+sky130_fd_pr__nfet_01v8_lvt__pditsd_diff_0}
* BSIM4 - Gate Induced Drain Leakage Model Parameters
+ agidl = 0.0
+ bgidl = 2.3e+9
+ cgidl = 0.5
+ egidl = 0.8
* BSIM4 - Gate Leakage Current Parameters
+ aigbacc = 1.0
+ bigbacc = 0.0
+ cigbacc = 0.0
+ nigbacc = 1.0
+ aigbinv = 0.35
+ bigbinv = 0.03
+ cigbinv = 0.006
+ eigbinv = 1.1
+ nigbinv = 3.0
+ aigc = 0.43
+ bigc = 0.054
+ cigc = 0.075
+ nigc = 1.0
+ aigsd = 0.43
+ bigsd = 0.054
+ cigsd = 0.075
+ dlcig = 0.0
+ poxedge = 1.0
+ pigcd = 1.0
+ ntox = 1.0
+ toxref = 4.148e-9
* Temperature Effects Parameters
+ kt1 = {-0.26953+sky130_fd_pr__nfet_01v8_lvt__kt1_diff_0}
+ kt2 = -0.022714
+ at = 78553.0
+ ute = -1.0929
+ ua1 = 1.9956e-9
+ ub1 = -1.7256e-18
+ uc1 = -4.9957e-11
+ kt1l = 0.0
+ prt = 0.0
* BSIM4 - High Speed RF Model Parameters
+ xrcrg1 = 12.0
+ xrcrg2 = 1.0
+ rbpb = 50.0
+ rbpd = 50.0
+ rbps = 50.0
+ rbdb = 50.0
+ rbsb = 50.0
+ gbmin = 1.0e-12
* BSIM4 - Flicker and Thermal Noise Parameters
+ noia = 9.0e+41
+ noib = 1.0e+27
+ noic = 800000000000.0
+ em = 4.1000000e+7
+ af = 1.0
+ ef = 1.2
+ kf = 0.0
+ ntnoi = 1.0
* BSIM4 - Layout Dependent Parasitic Model Parameters
+ dmcg = 0.0
+ dmcgt = 0.0
+ dmdg = 0.0
+ xgw = 0.0
+ xgl = 0.0
+ ngcon = 1.0
* Diode DC IV Parameters
* BSIM4 - Diode DC IV parameters
+ diomod = 1.0
+ njs = 1.2928
+ jss = 0.0027500000000000003
+ jsws = 6.0e-10
+ xtis = 2.0
+ bvs = 11.9
+ xjbvs = 1.0
+ ijthsrev = 0.1
+ ijthsfwd = 0.1
* Diode and FET Capacitance Parameters
+ tpb = 0.0012287
+ tpbsw = 0.0
+ tpbswg = 0.0
+ tcj = 0.000792
+ tcjsw = 1.0e-5
+ tcjswg = 0.0
+ cgdo = {2.5889e-010*sky130_fd_pr__nfet_01v8_lvt__overlap_mult}
+ cgso = {2.5889e-010*sky130_fd_pr__nfet_01v8_lvt__overlap_mult}
+ cgbo = 1.0e-14
+ capmod = 2.0
+ xpart = 0.0
+ cgsl = {2.5e-011*sky130_fd_pr__nfet_01v8_lvt__overlap_mult}
+ cgdl = {2.5e-011*sky130_fd_pr__nfet_01v8_lvt__overlap_mult}
+ cf = 1.0e-14
+ clc = 1.0e-7
+ cle = 0.6
+ dlc = {1.3469e-008+sky130_fd_pr__nfet_01v8_lvt__dlc_diff+sky130_fd_pr__nfet_01v8_lvt__dlc_rotweak}
+ dwc = {2.6e-008+sky130_fd_pr__nfet_01v8_lvt__dwc_diff}
+ vfbcv = -1.0
+ acde = 0.38008
+ moin = 23.81
+ noff = 3.8661
+ voffcv = -0.16994
+ ngate = 1.0e+23
+ lwc = 0.0
+ llc = 0.0
+ lwlc = 0.0
+ wlc = 0.0
+ wwc = 0.0
+ wwlc = 0.0
* BSIM4 - FET and Diode capacitance parameters
+ ckappas = 0.6
+ cjs = {0.001209*sky130_fd_pr__nfet_01v8_lvt__ajunction_mult}
+ mjs = 0.42197
+ pbs = 0.7477
+ cjsws = {3.6224e-011*sky130_fd_pr__nfet_01v8_lvt__pjunction_mult}
+ mjsws = 0.001
+ pbsws = 0.1
+ cjswgs = {2.0132e-010*sky130_fd_pr__nfet_01v8_lvt__pjunction_mult}
+ mjswgs = 0.8000
+ pbswgs = 0.79644
* Stress Parameters
+ saref = 2.74e-6
+ sbref = 2.74e-6
+ wlod = {0+sky130_fd_pr__nfet_01v8_lvt__wlod_diff}
+ kvth0 = {0+sky130_fd_pr__nfet_01v8_lvt__kvth0_diff}
+ lkvth0 = {0+sky130_fd_pr__nfet_01v8_lvt__lkvth0_diff}
+ wkvth0 = {0+sky130_fd_pr__nfet_01v8_lvt__wkvth0_diff}
+ pkvth0 = 0.0
+ llodvth = 0.0
+ wlodvth = 1.0
+ stk2 = 0.0
+ lodk2 = 1.0
+ lodeta0 = 1.0
+ ku0 = {0+sky130_fd_pr__nfet_01v8_lvt__ku0_diff}
+ lku0 = {0+sky130_fd_pr__nfet_01v8_lvt__lku0_diff}
+ wku0 = {0+sky130_fd_pr__nfet_01v8_lvt__wku0_diff}
+ pku0 = 0.0
+ llodku0 = 0.0
+ wlodku0 = 1.0
+ kvsat = {0+sky130_fd_pr__nfet_01v8_lvt__kvsat_diff}
+ steta0 = 0.0
+ tku0 = 0.0
.model sky130_fd_pr__nfet_01v8_lvt__model.1 nmos
* DC IV MOS Parameters
+ lmin = 1.995e-06 lmax = 2.005e-06 wmin = 9.95e-07 wmax = 1.005e-6
+ level = 54.0
+ tnom = 30.0
+ version = 4.5
+ toxm = 4.148e-9
+ xj = 1.5e-7
+ lln = 1.0
+ lwn = 1.0
+ wln = 1.0
+ wwn = 1.0
+ lint = {1.2025e-008+sky130_fd_pr__nfet_01v8_lvt__lint_diff}
+ ll = 0.0
+ lw = 0.0
+ lwl = 0.0
+ wint = {2.6e-008+sky130_fd_pr__nfet_01v8_lvt__wint_diff}
+ wl = 0.0
+ ww = 0.0
+ wwl = 0.0
+ xl = 0.0
+ xw = 0.0
+ mobmod = 0.0
+ binunit = 2.0
+ dwg = -1.33e-8
+ dwb = -1.08e-8
* BSIM4 - Model Selectors
+ igcmod = 0.0
+ igbmod = 0.0
+ rgatemod = 0.0
+ rbodymod = 1.0
+ trnqsmod = 0.0
+ acnqsmod = 0.0
+ fnoimod = 1.0
+ tnoimod = 1.0
+ permod = 1.0
+ geomod = 0.0
+ rdsmod = 0.0
+ tempmod = 0.0
+ lintnoi = -3.0e-7
+ vfbsdoff = 0.0
+ lambda = 0.0
+ vtl = 0.0
+ lc = 0.0
+ xn = 0.0
+ rnoia = 0.912
+ rnoib = 0.26
+ tnoia = 2.5e+7
+ tnoib = 9.9e+6
* BSIM4 - Process Parameters
+ epsrox = 3.9
+ toxe = {4.148e-009*sky130_fd_pr__nfet_01v8_lvt__toxe_mult+sky130_fd_pr__nfet_01v8_lvt__toxe_slope_spectre*(4.148e-09*sky130_fd_pr__nfet_01v8_lvt__toxe_mult*(sky130_fd_pr__nfet_01v8_lvt__toxe_slope/sqrt(l*w*mult)))}
+ dtox = 0.0
+ ndep = 1.7e+17
+ nsd = 1.0e+20
+ rshg = 0.1
+ rsh = {1*sky130_fd_pr__nfet_01v8_lvt__rshn_mult}
* Threshold Voltage Parameters
+ vth0 = {0.43904+sky130_fd_pr__nfet_01v8_lvt__vth0_diff_1+sky130_fd_pr__nfet_01v8_lvt__vth0_slope_spectre*(sky130_fd_pr__nfet_01v8_lvt__vth0_slope/sqrt(l*w*mult))}
+ k1 = 0.45793
+ k2 = {-0.03517+sky130_fd_pr__nfet_01v8_lvt__k2_diff_1}
+ k3 = 1.65
+ dvt0 = 0.07665
+ dvt1 = 0.1252
+ dvt2 = -0.05637
+ dvt0w = 0.0
+ dvt1w = 5300000.0
+ dvt2w = -0.032
+ w0 = 1.0e-7
+ k3b = 1.6
+ vfb = 0.0
* NEW BSIM4 Parameters for Level 54
+ phin = 0.0
+ lpe0 = 2.3802e-7
+ lpeb = -4.9152e-8
+ vbm = -3.0
+ dvtp0 = 0.0
+ dvtp1 = 0.0
* Mobility Parameters
+ vsat = {42698+sky130_fd_pr__nfet_01v8_lvt__vsat_diff_1}
+ ua = {-1.1127e-009+sky130_fd_pr__nfet_01v8_lvt__ua_diff_1}
+ ub = {2.2971e-018+sky130_fd_pr__nfet_01v8_lvt__ub_diff_1}
+ uc = 5.1465e-11
+ rdsw = {103.65+sky130_fd_pr__nfet_01v8_lvt__rdsw_diff_1}
+ prwb = 0.0
+ prwg = 0.0
+ wr = 1.0
+ u0 = {0.032411+sky130_fd_pr__nfet_01v8_lvt__u0_diff_1}
+ a0 = {1.9169+sky130_fd_pr__nfet_01v8_lvt__a0_diff_1}
+ keta = {-0.18123+sky130_fd_pr__nfet_01v8_lvt__keta_diff_1}
+ a1 = 0.0
+ a2 = 0.38689047
+ ags = {1.5934+sky130_fd_pr__nfet_01v8_lvt__ags_diff_1}
+ b0 = {0+sky130_fd_pr__nfet_01v8_lvt__b0_diff_1}
+ b1 = {0+sky130_fd_pr__nfet_01v8_lvt__b1_diff_1}
* BSIM4 - Mobility Parameters
+ eu = 1.67
+ rdswmin = 0.0
+ rdw = 0.0
+ rdwmin = 0.0
+ rsw = 0.0
+ rswmin = 0.0
* Subthreshold Current Parameters
+ voff = {-0.11703977+sky130_fd_pr__nfet_01v8_lvt__voff_diff_1+sky130_fd_pr__nfet_01v8_lvt__voff_slope_spectre*(sky130_fd_pr__nfet_01v8_lvt__voff_slope/sqrt(l*w*mult))}
+ nfactor = {0.89325217+sky130_fd_pr__nfet_01v8_lvt__nfactor_diff_1+sky130_fd_pr__nfet_01v8_lvt__nfactor_slope_spectre*(sky130_fd_pr__nfet_01v8_lvt__nfactor_slope/sqrt(l*w*mult))}
+ up = 0.0
+ ud = 0.0
+ lp = 1.0
+ tvfbsdoff = 0.0
+ tvoff = {0+sky130_fd_pr__nfet_01v8_lvt__tvoff_diff_1}
+ cit = 1.0e-5
+ cdsc = 3.8556e-37
+ cdscb = -0.00011484
+ cdscd = 4.7984e-6
+ eta0 = {0.0005+sky130_fd_pr__nfet_01v8_lvt__eta0_diff_1}
+ etab = -0.0005
+ dsub = 0.40224308
* BSIM4 - Sub-threshold parameters
+ voffl = 0.0
+ minv = 0.0
* Rout Parameters
+ pclm = {0.23453+sky130_fd_pr__nfet_01v8_lvt__pclm_diff_1}
+ pdiblc1 = 0.39
+ pdiblc2 = 0.011748
+ pdiblcb = 0.0
+ drout = 3.4946
+ pscbe1 = 4.5e+8
+ pscbe2 = 1.0e-8
+ pvag = 0.0
+ delta = 0.01
+ alpha0 = 0.00012443488
+ alpha1 = 0.0
+ beta0 = 21.191235
* BSIM4 - Rout Parameters
+ fprout = 0.0
+ pdits = {1.4427e-015+sky130_fd_pr__nfet_01v8_lvt__pdits_diff_1}
+ pditsl = 0.0
+ pditsd = {0+sky130_fd_pr__nfet_01v8_lvt__pditsd_diff_1}
* BSIM4 - Gate Induced Drain Leakage Model Parameters
+ agidl = 0.0
+ bgidl = 2.3e+9
+ cgidl = 0.5
+ egidl = 0.8
* BSIM4 - Gate Leakage Current Parameters
+ aigbacc = 1.0
+ bigbacc = 0.0
+ cigbacc = 0.0
+ nigbacc = 1.0
+ aigbinv = 0.35
+ bigbinv = 0.03
+ cigbinv = 0.006
+ eigbinv = 1.1
+ nigbinv = 3.0
+ aigc = 0.43
+ bigc = 0.054
+ cigc = 0.075
+ nigc = 1.0
+ aigsd = 0.43
+ bigsd = 0.054
+ cigsd = 0.075
+ dlcig = 0.0
+ poxedge = 1.0
+ pigcd = 1.0
+ ntox = 1.0
+ toxref = 4.148e-9
* Temperature Effects Parameters
+ kt1 = {-0.26852+sky130_fd_pr__nfet_01v8_lvt__kt1_diff_1}
+ kt2 = -0.037089
+ at = 49172.0
+ ute = -1.1197
+ ua1 = 2.0463e-9
+ ub1 = -1.8943e-18
+ uc1 = -9.1901e-12
+ kt1l = 0.0
+ prt = 0.0
* BSIM4 - High Speed RF Model Parameters
+ xrcrg1 = 12.0
+ xrcrg2 = 1.0
+ rbpb = 50.0
+ rbpd = 50.0
+ rbps = 50.0
+ rbdb = 50.0
+ rbsb = 50.0
+ gbmin = 1.0e-12
* BSIM4 - Flicker and Thermal Noise Parameters
+ noia = 9.0e+41
+ noib = 1.0e+27
+ noic = 800000000000.0
+ em = 4.1000000e+7
+ af = 1.0
+ ef = 1.2
+ kf = 0.0
+ ntnoi = 1.0
* BSIM4 - Layout Dependent Parasitic Model Parameters
+ dmcg = 0.0
+ dmcgt = 0.0
+ dmdg = 0.0
+ xgw = 0.0
+ xgl = 0.0
+ ngcon = 1.0
* Diode DC IV Parameters
* BSIM4 - Diode DC IV parameters
+ diomod = 1.0
+ njs = 1.2928
+ jss = 0.0027500000000000003
+ jsws = 6.0e-10
+ xtis = 2.0
+ bvs = 11.9
+ xjbvs = 1.0
+ ijthsrev = 0.1
+ ijthsfwd = 0.1
* Diode and FET Capacitance Parameters
+ tpb = 0.0012287
+ tpbsw = 0.0
+ tpbswg = 0.0
+ tcj = 0.000792
+ tcjsw = 1.0e-5
+ tcjswg = 0.0
+ cgdo = {2.5889e-010*sky130_fd_pr__nfet_01v8_lvt__overlap_mult}
+ cgso = {2.5889e-010*sky130_fd_pr__nfet_01v8_lvt__overlap_mult}
+ cgbo = 1.0e-14
+ capmod = 2.0
+ xpart = 0.0
+ cgsl = {2.5e-011*sky130_fd_pr__nfet_01v8_lvt__overlap_mult}
+ cgdl = {2.5e-011*sky130_fd_pr__nfet_01v8_lvt__overlap_mult}
+ cf = 1.0e-14
+ clc = 1.0e-7
+ cle = 0.6
+ dlc = {1.3469e-008+sky130_fd_pr__nfet_01v8_lvt__dlc_diff+sky130_fd_pr__nfet_01v8_lvt__dlc_rotweak}
+ dwc = {2.6e-008+sky130_fd_pr__nfet_01v8_lvt__dwc_diff}
+ vfbcv = -1.0
+ acde = 0.38008
+ moin = 23.81
+ noff = 3.8661
+ voffcv = -0.16994
+ ngate = 1.0e+23
+ lwc = 0.0
+ llc = 0.0
+ lwlc = 0.0
+ wlc = 0.0
+ wwc = 0.0
+ wwlc = 0.0
* BSIM4 - FET and Diode capacitance parameters
+ ckappas = 0.6
+ cjs = {0.001209*sky130_fd_pr__nfet_01v8_lvt__ajunction_mult}
+ mjs = 0.42197
+ pbs = 0.7477
+ cjsws = {3.6224e-011*sky130_fd_pr__nfet_01v8_lvt__pjunction_mult}
+ mjsws = 0.001
+ pbsws = 0.1
+ cjswgs = {2.0132e-010*sky130_fd_pr__nfet_01v8_lvt__pjunction_mult}
+ mjswgs = 0.8000
+ pbswgs = 0.79644
* Stress Parameters
+ saref = 3.0e-6
+ sbref = 3.0e-6
+ wlod = {0+sky130_fd_pr__nfet_01v8_lvt__wlod_diff}
+ kvth0 = {0+sky130_fd_pr__nfet_01v8_lvt__kvth0_diff}
+ lkvth0 = {0+sky130_fd_pr__nfet_01v8_lvt__lkvth0_diff}
+ wkvth0 = {0+sky130_fd_pr__nfet_01v8_lvt__wkvth0_diff}
+ pkvth0 = 0.0
+ llodvth = 0.0
+ wlodvth = 1.0
+ stk2 = 0.0
+ lodk2 = 1.0
+ lodeta0 = 1.0
+ ku0 = {0+sky130_fd_pr__nfet_01v8_lvt__ku0_diff}
+ lku0 = {0+sky130_fd_pr__nfet_01v8_lvt__lku0_diff}
+ wku0 = {0+sky130_fd_pr__nfet_01v8_lvt__wku0_diff}
+ pku0 = 0.0
+ llodku0 = 0.0
+ wlodku0 = 1.0
+ kvsat = {0+sky130_fd_pr__nfet_01v8_lvt__kvsat_diff}
+ steta0 = 0.0
+ tku0 = 0.0
.model sky130_fd_pr__nfet_01v8_lvt__model.2 nmos
* DC IV MOS Parameters
+ lmin = 3.995e-06 lmax = 6.005e-06 wmin = 9.95e-07 wmax = 2.085e-6
+ level = 54.0
+ tnom = 30.0
+ version = 4.5
+ toxm = 4.148e-9
+ xj = 1.5e-7
+ lln = 1.0
+ lwn = 1.0
+ wln = 1.0
+ wwn = 1.0
+ lint = {1.2025e-008+sky130_fd_pr__nfet_01v8_lvt__lint_diff}
+ ll = 0.0
+ lw = 0.0
+ lwl = 0.0
+ wint = {2.6e-008+sky130_fd_pr__nfet_01v8_lvt__wint_diff}
+ wl = 0.0
+ ww = 0.0
+ wwl = 0.0
+ xl = 0.0
+ xw = 0.0
+ mobmod = 0.0
+ binunit = 2.0
+ dwg = -1.33e-8
+ dwb = -1.08e-8
* BSIM4 - Model Selectors
+ igcmod = 0.0
+ igbmod = 0.0
+ rgatemod = 0.0
+ rbodymod = 1.0
+ trnqsmod = 0.0
+ acnqsmod = 0.0
+ fnoimod = 1.0
+ tnoimod = 1.0
+ permod = 1.0
+ geomod = 0.0
+ rdsmod = 0.0
+ tempmod = 0.0
+ lintnoi = -3.0e-7
+ vfbsdoff = 0.0
+ lambda = 0.0
+ vtl = 0.0
+ lc = 0.0
+ xn = 0.0
+ rnoia = 0.912
+ rnoib = 0.26
+ tnoia = 2.5e+7
+ tnoib = 9.9e+6
* BSIM4 - Process Parameters
+ epsrox = 3.9
+ toxe = {4.148e-009*sky130_fd_pr__nfet_01v8_lvt__toxe_mult+sky130_fd_pr__nfet_01v8_lvt__toxe_slope_spectre*(4.148e-09*sky130_fd_pr__nfet_01v8_lvt__toxe_mult*(sky130_fd_pr__nfet_01v8_lvt__toxe_slope/sqrt(l*w*mult)))}
+ dtox = 0.0
+ ndep = 1.7e+17
+ nsd = 1.0e+20
+ rshg = 0.1
+ rsh = {1*sky130_fd_pr__nfet_01v8_lvt__rshn_mult}
* Threshold Voltage Parameters
+ vth0 = {0.42802+sky130_fd_pr__nfet_01v8_lvt__vth0_diff_2+sky130_fd_pr__nfet_01v8_lvt__vth0_slope_spectre*(sky130_fd_pr__nfet_01v8_lvt__vth0_slope/sqrt(l*w*mult))}
+ k1 = 0.53326
+ k2 = {-0.067164508+sky130_fd_pr__nfet_01v8_lvt__k2_diff_2}
+ k3 = 1.65
+ dvt0 = 0.07665
+ dvt1 = 0.1252
+ dvt2 = -0.05637
+ dvt0w = 0.0
+ dvt1w = 5300000.0
+ dvt2w = -0.032
+ w0 = 1.0e-7
+ k3b = 1.6
+ vfb = 0.0
* NEW BSIM4 Parameters for Level 54
+ phin = 0.0
+ lpe0 = 2.3802e-7
+ lpeb = -4.9152e-8
+ vbm = -3.0
+ dvtp0 = 0.0
+ dvtp1 = 0.0
* Mobility Parameters
+ vsat = {200550+sky130_fd_pr__nfet_01v8_lvt__vsat_diff_2}
+ ua = {-9.7865e-010+sky130_fd_pr__nfet_01v8_lvt__ua_diff_2}
+ ub = {2.1353e-018+sky130_fd_pr__nfet_01v8_lvt__ub_diff_2}
+ uc = 2.2350587e-11
+ rdsw = {103.65+sky130_fd_pr__nfet_01v8_lvt__rdsw_diff_2}
+ prwb = 0.0
+ prwg = 0.0
+ wr = 1.0
+ u0 = {0.032501+sky130_fd_pr__nfet_01v8_lvt__u0_diff_2}
+ a0 = {1.9137+sky130_fd_pr__nfet_01v8_lvt__a0_diff_2}
+ keta = {0+sky130_fd_pr__nfet_01v8_lvt__keta_diff_2}
+ a1 = 0.0
+ a2 = 0.38689047
+ ags = {0.51517+sky130_fd_pr__nfet_01v8_lvt__ags_diff_2}
+ b0 = {0+sky130_fd_pr__nfet_01v8_lvt__b0_diff_2}
+ b1 = {0+sky130_fd_pr__nfet_01v8_lvt__b1_diff_2}
* BSIM4 - Mobility Parameters
+ eu = 1.67
+ rdswmin = 0.0
+ rdw = 0.0
+ rdwmin = 0.0
+ rsw = 0.0
+ rswmin = 0.0
* Subthreshold Current Parameters
+ voff = {-0.11023409+sky130_fd_pr__nfet_01v8_lvt__voff_diff_2+sky130_fd_pr__nfet_01v8_lvt__voff_slope_spectre*(sky130_fd_pr__nfet_01v8_lvt__voff_slope/sqrt(l*w*mult))}
+ nfactor = {0.8176398+sky130_fd_pr__nfet_01v8_lvt__nfactor_diff_2+sky130_fd_pr__nfet_01v8_lvt__nfactor_slope_spectre*(sky130_fd_pr__nfet_01v8_lvt__nfactor_slope/sqrt(l*w*mult))}
+ up = 0.0
+ ud = 0.0
+ lp = 1.0
+ tvfbsdoff = 0.0
+ tvoff = {0+sky130_fd_pr__nfet_01v8_lvt__tvoff_diff_2}
+ cit = 1.0e-5
+ cdsc = 3.8556e-37
+ cdscb = -0.00011484
+ cdscd = 4.7984e-6
+ eta0 = {0.08+sky130_fd_pr__nfet_01v8_lvt__eta0_diff_2}
+ etab = -0.07
+ dsub = 0.56
* BSIM4 - Sub-threshold parameters
+ voffl = 0.0
+ minv = 0.0
* Rout Parameters
+ pclm = {0.2+sky130_fd_pr__nfet_01v8_lvt__pclm_diff_2}
+ pdiblc1 = 0.39
+ pdiblc2 = 0.0075691
+ pdiblcb = 0.0
+ drout = 3.4946
+ pscbe1 = 4.5e+8
+ pscbe2 = 1.0e-8
+ pvag = 0.0
+ delta = 0.01
+ alpha0 = 4.1734937e-5
+ alpha1 = 0.0
+ beta0 = 17.793363
* BSIM4 - Rout Parameters
+ fprout = 0.0
+ pdits = {1.4427e-015+sky130_fd_pr__nfet_01v8_lvt__pdits_diff_2}
+ pditsl = 0.0
+ pditsd = {0+sky130_fd_pr__nfet_01v8_lvt__pditsd_diff_2}
* BSIM4 - Gate Induced Drain Leakage Model Parameters
+ agidl = 0.0
+ bgidl = 2.3e+9
+ cgidl = 0.5
+ egidl = 0.8
* BSIM4 - Gate Leakage Current Parameters
+ aigbacc = 1.0
+ bigbacc = 0.0
+ cigbacc = 0.0
+ nigbacc = 1.0
+ aigbinv = 0.35
+ bigbinv = 0.03
+ cigbinv = 0.006
+ eigbinv = 1.1
+ nigbinv = 3.0
+ aigc = 0.43
+ bigc = 0.054
+ cigc = 0.075
+ nigc = 1.0
+ aigsd = 0.43
+ bigsd = 0.054
+ cigsd = 0.075
+ dlcig = 0.0
+ poxedge = 1.0
+ pigcd = 1.0
+ ntox = 1.0
+ toxref = 4.148e-9
* Temperature Effects Parameters
+ kt1 = {-0.25763+sky130_fd_pr__nfet_01v8_lvt__kt1_diff_2}
+ kt2 = -0.036364
+ at = 58230.0
+ ute = -1.1808
+ ua1 = 1.9636e-9
+ ub1 = -1.466e-18
+ uc1 = 6.3418e-11
+ kt1l = 0.0
+ prt = 0.0
* BSIM4 - High Speed RF Model Parameters
+ xrcrg1 = 12.0
+ xrcrg2 = 1.0
+ rbpb = 50.0
+ rbpd = 50.0
+ rbps = 50.0
+ rbdb = 50.0
+ rbsb = 50.0
+ gbmin = 1.0e-12
* BSIM4 - Flicker and Thermal Noise Parameters
+ noia = 9.0e+41
+ noib = 1.0e+27
+ noic = 800000000000.0
+ em = 4.1000000e+7
+ af = 1.0
+ ef = 1.2
+ kf = 0.0
+ ntnoi = 1.0
* BSIM4 - Layout Dependent Parasitic Model Parameters
+ dmcg = 0.0
+ dmcgt = 0.0
+ dmdg = 0.0
+ xgw = 0.0
+ xgl = 0.0
+ ngcon = 1.0
* Diode DC IV Parameters
* BSIM4 - Diode DC IV parameters
+ diomod = 1.0
+ njs = 1.2928
+ jss = 0.0027500000000000003
+ jsws = 6.0e-10
+ xtis = 2.0
+ bvs = 11.9
+ xjbvs = 1.0
+ ijthsrev = 0.1
+ ijthsfwd = 0.1
* Diode and FET Capacitance Parameters
+ tpb = 0.0012287
+ tpbsw = 0.0
+ tpbswg = 0.0
+ tcj = 0.000792
+ tcjsw = 1.0e-5
+ tcjswg = 0.0
+ cgdo = {2.5889e-010*sky130_fd_pr__nfet_01v8_lvt__overlap_mult}
+ cgso = {2.5889e-010*sky130_fd_pr__nfet_01v8_lvt__overlap_mult}
+ cgbo = 1.0e-14
+ capmod = 2.0
+ xpart = 0.0
+ cgsl = {2.5e-011*sky130_fd_pr__nfet_01v8_lvt__overlap_mult}
+ cgdl = {2.5e-011*sky130_fd_pr__nfet_01v8_lvt__overlap_mult}
+ cf = 1.0e-14
+ clc = 1.0e-7
+ cle = 0.6
+ dlc = {1.3469e-008+sky130_fd_pr__nfet_01v8_lvt__dlc_diff+sky130_fd_pr__nfet_01v8_lvt__dlc_rotweak}
+ dwc = {2.6e-008+sky130_fd_pr__nfet_01v8_lvt__dwc_diff}
+ vfbcv = -1.0
+ acde = 0.38008
+ moin = 23.81
+ noff = 3.8661
+ voffcv = -0.16994
+ ngate = 1.0e+23
+ lwc = 0.0
+ llc = 0.0
+ lwlc = 0.0
+ wlc = 0.0
+ wwc = 0.0
+ wwlc = 0.0
* BSIM4 - FET and Diode capacitance parameters
+ ckappas = 0.6
+ cjs = {0.001209*sky130_fd_pr__nfet_01v8_lvt__ajunction_mult}
+ mjs = 0.42197
+ pbs = 0.7477
+ cjsws = {3.6224e-011*sky130_fd_pr__nfet_01v8_lvt__pjunction_mult}
+ mjsws = 0.001
+ pbsws = 0.1
+ cjswgs = {2.0132e-010*sky130_fd_pr__nfet_01v8_lvt__pjunction_mult}
+ mjswgs = 0.8000
+ pbswgs = 0.79644
* Stress Parameters
+ saref = 3.0e-6
+ sbref = 3.0e-6
+ wlod = {0+sky130_fd_pr__nfet_01v8_lvt__wlod_diff}
+ kvth0 = {0+sky130_fd_pr__nfet_01v8_lvt__kvth0_diff}
+ lkvth0 = {0+sky130_fd_pr__nfet_01v8_lvt__lkvth0_diff}
+ wkvth0 = {0+sky130_fd_pr__nfet_01v8_lvt__wkvth0_diff}
+ pkvth0 = 0.0
+ llodvth = 0.0
+ wlodvth = 1.0
+ stk2 = 0.0
+ lodk2 = 1.0
+ lodeta0 = 1.0
+ ku0 = {0+sky130_fd_pr__nfet_01v8_lvt__ku0_diff}
+ lku0 = {0+sky130_fd_pr__nfet_01v8_lvt__lku0_diff}
+ wku0 = {0+sky130_fd_pr__nfet_01v8_lvt__wku0_diff}
+ pku0 = 0.0
+ llodku0 = 0.0
+ wlodku0 = 1.0
+ kvsat = {0+sky130_fd_pr__nfet_01v8_lvt__kvsat_diff}
+ steta0 = 0.0
+ tku0 = 0.0
.model sky130_fd_pr__nfet_01v8_lvt__model.3 nmos
* DC IV MOS Parameters
+ lmin = 1.45e-07 lmax = 1.55e-07 wmin = 9.95e-07 wmax = 1.005e-6
+ level = 54.0
+ tnom = 30.0
+ version = 4.5
+ toxm = 4.148e-9
+ xj = 1.5e-7
+ lln = 1.0
+ lwn = 1.0
+ wln = 1.0
+ wwn = 1.0
+ lint = {1.2025e-008+sky130_fd_pr__nfet_01v8_lvt__lint_diff}
+ ll = 0.0
+ lw = 0.0
+ lwl = 0.0
+ wint = {2.6e-008+sky130_fd_pr__nfet_01v8_lvt__wint_diff}
+ wl = 0.0
+ ww = 0.0
+ wwl = 0.0
+ xl = 0.0
+ xw = 0.0
+ mobmod = 0.0
+ binunit = 2.0
+ dwg = -1.33e-8
+ dwb = -1.08e-8
* BSIM4 - Model Selectors
+ igcmod = 0.0
+ igbmod = 0.0
+ rgatemod = 0.0
+ rbodymod = 1.0
+ trnqsmod = 0.0
+ acnqsmod = 0.0
+ fnoimod = 1.0
+ tnoimod = 1.0
+ permod = 1.0
+ geomod = 0.0
+ rdsmod = 0.0
+ tempmod = 0.0
+ lintnoi = -3.0e-7
+ vfbsdoff = 0.0
+ lambda = 0.0
+ vtl = 0.0
+ lc = 0.0
+ xn = 0.0
+ rnoia = 0.912
+ rnoib = 0.26
+ tnoia = 2.5e+7
+ tnoib = 9.9e+6
* BSIM4 - Process Parameters
+ epsrox = 3.9
+ toxe = {4.148e-009*sky130_fd_pr__nfet_01v8_lvt__toxe_mult+sky130_fd_pr__nfet_01v8_lvt__toxe_slope_spectre*(4.148e-09*sky130_fd_pr__nfet_01v8_lvt__toxe_mult*(sky130_fd_pr__nfet_01v8_lvt__toxe_slope1/sqrt(l*w*mult)))}
+ dtox = 0.0
+ ndep = 1.7e+17
+ nsd = 1.0e+20
+ rshg = 0.1
+ rsh = {1*sky130_fd_pr__nfet_01v8_lvt__rshn_mult}
* Threshold Voltage Parameters
+ vth0 = {0.27009+sky130_fd_pr__nfet_01v8_lvt__vth0_diff_3+sky130_fd_pr__nfet_01v8_lvt__vth0_slope_spectre*(sky130_fd_pr__nfet_01v8_lvt__vth0_slope1/sqrt(l*w*mult))}
+ k1 = 0.6626
+ k2 = {-0.090794821+sky130_fd_pr__nfet_01v8_lvt__k2_diff_3}
+ k3 = 1.65
+ dvt0 = 0.07665
+ dvt1 = 0.1252
+ dvt2 = -0.05637
+ dvt0w = 0.0
+ dvt1w = 5300000.0
+ dvt2w = -0.032
+ w0 = 1.0e-7
+ k3b = 1.6
+ vfb = 0.0
* NEW BSIM4 Parameters for Level 54
+ phin = 0.0
+ lpe0 = 2.3802e-7
+ lpeb = -4.9152e-8
+ vbm = -3.0
+ dvtp0 = 0.0
+ dvtp1 = 0.0
* Mobility Parameters
+ vsat = {163560+sky130_fd_pr__nfet_01v8_lvt__vsat_diff_3}
+ ua = {-2.1086e-009+sky130_fd_pr__nfet_01v8_lvt__ua_diff_3}
+ ub = {2.2465e-018+sky130_fd_pr__nfet_01v8_lvt__ub_diff_3}
+ uc = 9.6631013e-12
+ rdsw = {103.65+sky130_fd_pr__nfet_01v8_lvt__rdsw_diff_3}
+ prwb = 0.0
+ prwg = 0.0
+ wr = 1.0
+ u0 = {0.016895+sky130_fd_pr__nfet_01v8_lvt__u0_diff_3}
+ a0 = {0+sky130_fd_pr__nfet_01v8_lvt__a0_diff_3}
+ keta = {0+sky130_fd_pr__nfet_01v8_lvt__keta_diff_3}
+ a1 = 0.0
+ a2 = 0.38689047
+ ags = {1.2458+sky130_fd_pr__nfet_01v8_lvt__ags_diff_3}
+ b0 = {0+sky130_fd_pr__nfet_01v8_lvt__b0_diff_3}
+ b1 = {0+sky130_fd_pr__nfet_01v8_lvt__b1_diff_3}
* BSIM4 - Mobility Parameters
+ eu = 1.67
+ rdswmin = 0.0
+ rdw = 0.0
+ rdwmin = 0.0
+ rsw = 0.0
+ rswmin = 0.0
* Subthreshold Current Parameters
+ voff = {-0.11291855+sky130_fd_pr__nfet_01v8_lvt__voff_diff_3+sky130_fd_pr__nfet_01v8_lvt__voff_slope_spectre*(sky130_fd_pr__nfet_01v8_lvt__voff_slope/sqrt(l*w*mult))}
+ nfactor = {1.7696915+sky130_fd_pr__nfet_01v8_lvt__nfactor_diff_3+sky130_fd_pr__nfet_01v8_lvt__nfactor_slope_spectre*(sky130_fd_pr__nfet_01v8_lvt__nfactor_slope/sqrt(l*w*mult))}
+ up = 0.0
+ ud = 0.0
+ lp = 1.0
+ tvfbsdoff = 0.0
+ tvoff = {0+sky130_fd_pr__nfet_01v8_lvt__tvoff_diff_3}
+ cit = 1.0e-5
+ cdsc = 3.8556e-37
+ cdscb = -0.00011484
+ cdscd = 4.7984e-6
+ eta0 = {0.048017216+sky130_fd_pr__nfet_01v8_lvt__eta0_diff_3}
+ etab = -0.011685015
+ dsub = 0.26
* BSIM4 - Sub-threshold parameters
+ voffl = 0.0
+ minv = 0.0
* Rout Parameters
+ pclm = {0.33036+sky130_fd_pr__nfet_01v8_lvt__pclm_diff_3}
+ pdiblc1 = 0.94998046
+ pdiblc2 = 0.0075387
+ pdiblcb = 0.0
+ drout = 3.4946
+ pscbe1 = 4.5e+8
+ pscbe2 = 1.0e-8
+ pvag = 0.0
+ delta = 0.01
+ alpha0 = 0.00018578676
+ alpha1 = 0.0
+ beta0 = 26.886024
* BSIM4 - Rout Parameters
+ fprout = 0.0
+ pdits = {1.4427e-015+sky130_fd_pr__nfet_01v8_lvt__pdits_diff_3}
+ pditsl = 0.0
+ pditsd = {0+sky130_fd_pr__nfet_01v8_lvt__pditsd_diff_3}
* BSIM4 - Gate Induced Drain Leakage Model Parameters
+ agidl = 0.0
+ bgidl = 2.3e+9
+ cgidl = 0.5
+ egidl = 0.8
* BSIM4 - Gate Leakage Current Parameters
+ aigbacc = 1.0
+ bigbacc = 0.0
+ cigbacc = 0.0
+ nigbacc = 1.0
+ aigbinv = 0.35
+ bigbinv = 0.03
+ cigbinv = 0.006
+ eigbinv = 1.1
+ nigbinv = 3.0
+ aigc = 0.43
+ bigc = 0.054
+ cigc = 0.075
+ nigc = 1.0
+ aigsd = 0.43
+ bigsd = 0.054
+ cigsd = 0.075
+ dlcig = 0.0
+ poxedge = 1.0
+ pigcd = 1.0
+ ntox = 1.0
+ toxref = 4.148e-9
* Temperature Effects Parameters
+ kt1 = {-0.29309+sky130_fd_pr__nfet_01v8_lvt__kt1_diff_3}
+ kt2 = -0.0079249
+ at = 73790.0
+ ute = -1.6543
+ ua1 = -1.1099e-10
+ ub1 = 3.7483e-19
+ uc1 = -1.3108e-11
+ kt1l = 0.0
+ prt = 0.0
* BSIM4 - High Speed RF Model Parameters
+ xrcrg1 = 12.0
+ xrcrg2 = 1.0
+ rbpb = 50.0
+ rbpd = 50.0
+ rbps = 50.0
+ rbdb = 50.0
+ rbsb = 50.0
+ gbmin = 1.0e-12
* BSIM4 - Flicker and Thermal Noise Parameters
+ noia = 9.0e+41
+ noib = 1.0e+27
+ noic = 800000000000.0
+ em = 4.1000000e+7
+ af = 1.0
+ ef = 1.2
+ kf = 0.0
+ ntnoi = 1.0
* BSIM4 - Layout Dependent Parasitic Model Parameters
+ dmcg = 0.0
+ dmcgt = 0.0
+ dmdg = 0.0
+ xgw = 0.0
+ xgl = 0.0
+ ngcon = 1.0
* Diode DC IV Parameters
* BSIM4 - Diode DC IV parameters
+ diomod = 1.0
+ njs = 1.2928
+ jss = 0.0027500000000000003
+ jsws = 6.0e-10
+ xtis = 2.0
+ bvs = 11.9
+ xjbvs = 1.0
+ ijthsrev = 0.1
+ ijthsfwd = 0.1
* Diode and FET Capacitance Parameters
+ tpb = 0.0012287
+ tpbsw = 0.0
+ tpbswg = 0.0
+ tcj = 0.000792
+ tcjsw = 1.0e-5
+ tcjswg = 0.0
+ cgdo = {2.5889e-010*sky130_fd_pr__nfet_01v8_lvt__overlap_mult}
+ cgso = {2.5889e-010*sky130_fd_pr__nfet_01v8_lvt__overlap_mult}
+ cgbo = 1.0e-14
+ capmod = 2.0
+ xpart = 0.0
+ cgsl = {2.5e-011*sky130_fd_pr__nfet_01v8_lvt__overlap_mult}
+ cgdl = {2.5e-011*sky130_fd_pr__nfet_01v8_lvt__overlap_mult}
+ cf = 1.0e-14
+ clc = 1.0e-7
+ cle = 0.6
+ dlc = {1.3469e-008+sky130_fd_pr__nfet_01v8_lvt__dlc_diff+sky130_fd_pr__nfet_01v8_lvt__dlc_rotweak}
+ dwc = {2.6e-008+sky130_fd_pr__nfet_01v8_lvt__dwc_diff}
+ vfbcv = -1.0
+ acde = 0.38008
+ moin = 23.81
+ noff = 3.8661
+ voffcv = -0.16994
+ ngate = 1.0e+23
+ lwc = 0.0
+ llc = 0.0
+ lwlc = 0.0
+ wlc = 0.0
+ wwc = 0.0
+ wwlc = 0.0
* BSIM4 - FET and Diode capacitance parameters
+ ckappas = 0.6
+ cjs = {0.001209*sky130_fd_pr__nfet_01v8_lvt__ajunction_mult}
+ mjs = 0.42197
+ pbs = 0.7477
+ cjsws = {3.6224e-011*sky130_fd_pr__nfet_01v8_lvt__pjunction_mult}
+ mjsws = 0.001
+ pbsws = 0.1
+ cjswgs = {2.0132e-010*sky130_fd_pr__nfet_01v8_lvt__pjunction_mult}
+ mjswgs = 0.8000
+ pbswgs = 0.79644
* Stress Parameters
+ saref = 1.04e-6
+ sbref = 1.04e-6
+ wlod = {0+sky130_fd_pr__nfet_01v8_lvt__wlod_diff}
+ kvth0 = {0+sky130_fd_pr__nfet_01v8_lvt__kvth0_diff}
+ lkvth0 = {0+sky130_fd_pr__nfet_01v8_lvt__lkvth0_diff}
+ wkvth0 = {0+sky130_fd_pr__nfet_01v8_lvt__wkvth0_diff}
+ pkvth0 = 0.0
+ llodvth = 0.0
+ wlodvth = 1.0
+ stk2 = 0.0
+ lodk2 = 1.0
+ lodeta0 = 1.0
+ ku0 = {0+sky130_fd_pr__nfet_01v8_lvt__ku0_diff}
+ lku0 = {0+sky130_fd_pr__nfet_01v8_lvt__lku0_diff}
+ wku0 = {0+sky130_fd_pr__nfet_01v8_lvt__wku0_diff}
+ pku0 = 0.0
+ llodku0 = 0.0
+ wlodku0 = 1.0
+ kvsat = {0+sky130_fd_pr__nfet_01v8_lvt__kvsat_diff}
+ steta0 = 0.0
+ tku0 = 0.0
.model sky130_fd_pr__nfet_01v8_lvt__model.4 nmos
* DC IV MOS Parameters
+ lmin = 1.75e-07 lmax = 1.85e-07 wmin = 9.95e-07 wmax = 1.005e-6
+ level = 54.0
+ tnom = 30.0
+ version = 4.5
+ toxm = 4.148e-9
+ xj = 1.5e-7
+ lln = 1.0
+ lwn = 1.0
+ wln = 1.0
+ wwn = 1.0
+ lint = {1.2025e-008+sky130_fd_pr__nfet_01v8_lvt__lint_diff}
+ ll = 0.0
+ lw = 0.0
+ lwl = 0.0
+ wint = {2.6e-008+sky130_fd_pr__nfet_01v8_lvt__wint_diff}
+ wl = 0.0
+ ww = 0.0
+ wwl = 0.0