* Copyright 2020 The SkyWater PDK Authors
*
* Licensed under the Apache License, Version 2.0 (the "License");
* you may not use this file except in compliance with the License.
* You may obtain a copy of the License at
*
*     https://www.apache.org/licenses/LICENSE-2.0
*
* Unless required by applicable law or agreed to in writing, software
* distributed under the License is distributed on an "AS IS" BASIS,
* WITHOUT WARRANTIES OR CONDITIONS OF ANY KIND, either express or implied.
* See the License for the specific language governing permissions and
* limitations under the License.

* SKY130 Spice File.
.param sky130_fd_pr__nfet_01v8_lvt__toxe_slope_spectre = 0.0
.param sky130_fd_pr__nfet_01v8_lvt__vth0_slope_spectre = 0.0
.param sky130_fd_pr__nfet_01v8_lvt__voff_slope_spectre = 0.0
.param sky130_fd_pr__nfet_01v8_lvt__nfactor_slope_spectre = 0.0
* statistics {
*   process {
*   }
*   mismatch {
*     vary sky130_fd_pr__nfet_01v8_lvt__toxe_slope_spectre dist=gauss std = 1.0
*     vary sky130_fd_pr__nfet_01v8_lvt__vth0_slope_spectre dist=gauss std = 1.0
*     vary sky130_fd_pr__nfet_01v8_lvt__voff_slope_spectre dist=gauss std = 1.0
*     vary sky130_fd_pr__nfet_01v8_lvt__nfactor_slope_spectre dist=gauss std = 1.0
*   }
* }
.subckt  sky130_fd_pr__nfet_01v8_lvt d g s b
+ 
.param  l = 1 w = 1 ad = 0 as = 0 pd = 0 ps = 0 nrd = 0 nrs = 0 sa = 0 sb = 0 sd = 0 mult = 1 nf = 1.0
msky130_fd_pr__nfet_01v8_lvt d g s b sky130_fd_pr__nfet_01v8_lvt__model l = {l} w = {w} ad = {ad} as = {as} pd = {pd} ps = {ps} nrd = {nrd} nrs = {nrs} sa = {sa} sb = {sb} sd = {sd} nf = {nf}
.model sky130_fd_pr__nfet_01v8_lvt__model.0 nmos
* DC IV MOS Parameters
+ lmin = 8e-06 lmax = 1.0e-04 wmin = 7e-06 wmax = 1.0e-4
+ level = 54.0
+ tnom = 30.0
+ version = 4.5
+ toxm = 4.148e-9
+ xj = 1.5e-7
+ lln = 1.0
+ lwn = 1.0
+ wln = 1.0
+ wwn = 1.0
+ lint = 1.2025e-8
+ ll = 0.0
+ lw = 0.0
+ lwl = 0.0
+ wint = 2.6e-8
+ wl = 0.0
+ ww = 0.0
+ wwl = 0.0
+ xl = 0.0
+ xw = 0.0
+ mobmod = 0.0
+ binunit = 2.0
+ dwg = -1.33e-8
+ dwb = -1.08e-8
* BSIM4 - Model Selectors
+ igcmod = 0.0
+ igbmod = 0.0
+ rgatemod = 0.0
+ rbodymod = 1.0
+ trnqsmod = 0.0
+ acnqsmod = 0.0
+ fnoimod = 1.0
+ tnoimod = 1.0
+ permod = 1.0
+ geomod = 0.0
+ rdsmod = 0.0
+ tempmod = 0.0
+ lintnoi = -3.0e-7
+ vfbsdoff = 0.0
+ lambda = 0.0
+ vtl = 0.0
+ lc = 0.0
+ xn = 0.0
+ rnoia = 0.912
+ rnoib = 0.26
+ tnoia = 25000000.0
+ tnoib = 9900000.0
* BSIM4 - Process Parameters
+ epsrox = 3.9
+ toxe = {4.148e-09+sky130_fd_pr__nfet_01v8_lvt__toxe_slope_spectre*(4.148e-09*(sky130_fd_pr__nfet_01v8_lvt__toxe_slope/sqrt(l*w*mult)))}
+ dtox = 0.0
+ ndep = 1.7000000000000000e+17
+ nsd = 1.0e+20
+ rshg = 0.1
+ rsh = 1.0
* Threshold Voltage Parameters
+ vth0 = {0.4194946+sky130_fd_pr__nfet_01v8_lvt__vth0_slope_spectre*(sky130_fd_pr__nfet_01v8_lvt__vth0_slope/sqrt(l*w*mult))}
+ k1 = 0.47213
+ k2 = -0.033282
+ k3 = 1.65
+ dvt0 = 0.07665
+ dvt1 = 0.1252
+ dvt2 = -0.05637
+ dvt0w = 0.0
+ dvt1w = 5300000.0
+ dvt2w = -0.032
+ w0 = 1.0e-7
+ k3b = 1.6
+ vfb = 0.0
* NEW BSIM4 Parameters for Level 54
+ phin = 0.0
+ lpe0 = 2.3802e-7
+ lpeb = -4.9152e-8
+ vbm = -3.0
+ dvtp0 = 0.0
+ dvtp1 = 0.0
* Mobility Parameters
+ vsat = 161140.0
+ ua = -1.3015602e-9
+ ub = 2.67551e-18
+ uc = 7.0152e-11
+ rdsw = 103.65
+ prwb = 0.0
+ prwg = 0.0
+ wr = 1.0
+ u0 = 0.0320444
+ a0 = 1.95558886
+ keta = 0.0
+ a1 = 0.0
+ a2 = 0.38689047
+ ags = 0.53418
+ b0 = 0.0
+ b1 = 0.0
* BSIM4 - Mobility Parameters
+ eu = 1.67
+ rdswmin = 0.0
+ rdw = 0.0
+ rdwmin = 0.0
+ rsw = 0.0
+ rswmin = 0.0
* Subthreshold Current Parameters
+ voff = {-0.16522919+sky130_fd_pr__nfet_01v8_lvt__voff_slope_spectre*(sky130_fd_pr__nfet_01v8_lvt__voff_slope/sqrt(l*w*mult))}
+ nfactor = {0.8986479+sky130_fd_pr__nfet_01v8_lvt__nfactor_slope_spectre*(sky130_fd_pr__nfet_01v8_lvt__nfactor_slope/sqrt(l*w*mult))}
+ up = 0.0
+ ud = 0.0
+ lp = 1.0
+ tvfbsdoff = 0.0
+ tvoff = 0.00056944
+ cit = 1.0e-5
+ cdsc = 3.8556e-37
+ cdscb = -0.00011484
+ cdscd = 4.7984e-6
+ eta0 = 0.08
+ etab = -0.07
+ dsub = 0.56
* BSIM4 - Sub-threshold parameters
+ voffl = 0.0
+ minv = 0.0
* Rout Parameters
+ pclm = 0.2
+ pdiblc1 = 0.39
+ pdiblc2 = 0.0047977
+ pdiblcb = 0.0
+ drout = 3.4946
+ pscbe1 = 450000000.0
+ pscbe2 = 1.0e-8
+ pvag = 0.0
+ delta = 0.01
+ alpha0 = 8.4345657e-5
+ alpha1 = 0.0
+ beta0 = 17.822982
* BSIM4 - Rout Parameters
+ fprout = 0.0
+ pdits = 1.4427e-15
+ pditsl = 0.0
+ pditsd = 0.0
* BSIM4 - Gate Induced Drain Leakage Model Parameters
+ agidl = 0.0
+ bgidl = 2300000000.0
+ cgidl = 0.5
+ egidl = 0.8
* BSIM4 - Gate Leakage Current Parameters
+ aigbacc = 1.0
+ bigbacc = 0.0
+ cigbacc = 0.0
+ nigbacc = 1.0
+ aigbinv = 0.35
+ bigbinv = 0.03
+ cigbinv = 0.006
+ eigbinv = 1.1
+ nigbinv = 3.0
+ aigc = 0.43
+ bigc = 0.054
+ cigc = 0.075
+ nigc = 1.0
+ aigsd = 0.43
+ bigsd = 0.054
+ cigsd = 0.075
+ dlcig = 0.0
+ poxedge = 1.0
+ pigcd = 1.0
+ ntox = 1.0
+ toxref = 4.148e-9
* Temperature Effects Parameters
+ kt1 = -0.25364
+ kt2 = -0.034423
+ at = 333080.0
+ ute = -1.0777
+ ua1 = 2.6823e-9
+ ub1 = -2.4433e-18
+ uc1 = -1.9223e-11
+ kt1l = 0.0
+ prt = 0.0
* BSIM4 - High Speed RF Model Parameters
+ xrcrg1 = 12.0
+ xrcrg2 = 1.0
+ rbpb = 50.0
+ rbpd = 50.0
+ rbps = 50.0
+ rbdb = 50.0
+ rbsb = 50.0
+ gbmin = 1.0e-12
* BSIM4 - Flicker and Thermal Noise Parameters
+ noia = 9.0e+41
+ noib = 1.0e+27
+ noic = 800000000000.0
+ em = 41000000.0
+ af = 1.0
+ ef = 1.2
+ kf = 0.0
+ ntnoi = 1.0
* BSIM4 - Layout Dependent Parasitic Model Parameters
+ dmcg = 0.0
+ dmcgt = 0.0
+ dmdg = 0.0
+ xgw = 0.0
+ xgl = 0.0
+ ngcon = 1.0
* Diode DC IV Parameters
* BSIM4 - Diode DC IV parameters
+ diomod = 1.0
+ njs = 1.2928
+ jss = 0.00275
+ jsws = 6.0e-10
+ xtis = 2.0
+ bvs = 11.9
+ xjbvs = 1.0
+ ijthsrev = 0.1
+ ijthsfwd = 0.1
* Diode and FET Capacitance Parameters
+ tpb = 0.0012287
+ tpbsw = 0.0
+ tpbswg = 0.0
+ tcj = 0.000792
+ tcjsw = 1.0e-5
+ tcjswg = 0.0
+ cgdo = 2.392894381e-10
+ cgso = 2.392894381e-10
+ cgbo = 1.0e-14
+ capmod = 2.0
+ xpart = 0.0
+ cgsl = 2.310725e-11
+ cgdl = 2.310725e-11
+ cf = 1.0e-14
+ clc = 1.0e-7
+ cle = 0.6
+ dlc = 1.21071e-8
+ dwc = 2.6e-8
+ vfbcv = -1.0
+ acde = 0.38008
+ moin = 23.81
+ noff = 3.8661
+ voffcv = -0.16994
+ ngate = 1.0e+23
+ lwc = 0.0
+ llc = 0.0
+ lwlc = 0.0
+ wlc = 0.0
+ wwc = 0.0
+ wwlc = 0.0
* BSIM4 - FET and Diode capacitance parameters
+ ckappas = 0.6
+ cjs = 0.0012094836
+ mjs = 0.42197
+ pbs = 0.7477
+ cjsws = 3.230311424e-11
+ mjsws = 0.001
+ pbsws = 0.1
+ cjswgs = 1.795291232e-10
+ mjswgs = 0.8
+ pbswgs = 0.79644
* Stress Parameters
+ saref = 3.0e-6
+ sbref = 3.0e-6
+ wlod = {0+sky130_fd_pr__nfet_01v8_lvt__wlod_diff}
+ kvth0 = {0+sky130_fd_pr__nfet_01v8_lvt__kvth0_diff}
+ lkvth0 = {0+sky130_fd_pr__nfet_01v8_lvt__lkvth0_diff}
+ wkvth0 = {0+sky130_fd_pr__nfet_01v8_lvt__wkvth0_diff}
+ pkvth0 = 0.0
+ llodvth = 0.0
+ wlodvth = 1.0
+ stk2 = 0.0
+ lodk2 = 1.0
+ lodeta0 = 1.0
+ ku0 = {0+sky130_fd_pr__nfet_01v8_lvt__ku0_diff}
+ lku0 = {0+sky130_fd_pr__nfet_01v8_lvt__lku0_diff}
+ wku0 = {0+sky130_fd_pr__nfet_01v8_lvt__wku0_diff}
+ pku0 = 0.0
+ llodku0 = 0.0
+ wlodku0 = 1.0
+ kvsat = {0+sky130_fd_pr__nfet_01v8_lvt__kvsat_diff}
+ steta0 = 0.0
+ tku0 = 0.0
.model sky130_fd_pr__nfet_01v8_lvt__model.1 nmos
* DC IV MOS Parameters
+ lmin = 4e-06 lmax = 8e-06 wmin = 7e-06 wmax = 1.0e-4
+ level = 54.0
+ tnom = 30.0
+ version = 4.5
+ toxm = 4.148e-9
+ xj = 1.5e-7
+ lln = 1.0
+ lwn = 1.0
+ wln = 1.0
+ wwn = 1.0
+ lint = 1.2025e-8
+ ll = 0.0
+ lw = 0.0
+ lwl = 0.0
+ wint = 2.6e-8
+ wl = 0.0
+ ww = 0.0
+ wwl = 0.0
+ xl = 0.0
+ xw = 0.0
+ mobmod = 0.0
+ binunit = 2.0
+ dwg = -1.33e-8
+ dwb = -1.08e-8
* BSIM4 - Model Selectors
+ igcmod = 0.0
+ igbmod = 0.0
+ rgatemod = 0.0
+ rbodymod = 1.0
+ trnqsmod = 0.0
+ acnqsmod = 0.0
+ fnoimod = 1.0
+ tnoimod = 1.0
+ permod = 1.0
+ geomod = 0.0
+ rdsmod = 0.0
+ tempmod = 0.0
+ lintnoi = -3.0e-7
+ vfbsdoff = 0.0
+ lambda = 0.0
+ vtl = 0.0
+ lc = 0.0
+ xn = 0.0
+ rnoia = 0.912
+ rnoib = 0.26
+ tnoia = 25000000.0
+ tnoib = 9900000.0
* BSIM4 - Process Parameters
+ epsrox = 3.9
+ toxe = {4.148e-09+sky130_fd_pr__nfet_01v8_lvt__toxe_slope_spectre*(4.148e-09*(sky130_fd_pr__nfet_01v8_lvt__toxe_slope/sqrt(l*w*mult)))}
+ dtox = 0.0
+ ndep = 1.7000000000000000e+17
+ nsd = 1.0e+20
+ rshg = 0.1
+ rsh = 1.0
* Threshold Voltage Parameters
+ vth0 = {4.086317999e-01+sky130_fd_pr__nfet_01v8_lvt__vth0_slope_spectre*(sky130_fd_pr__nfet_01v8_lvt__vth0_slope2/sqrt(l*w*mult))} lvth0 = 8.664115058e-08 wvth0 = 7.547473520e-08 pvth0 = -6.019827142e-13
+ k1 = 5.488515703e-01 lk1 = -6.119274088e-07 wk1 = -5.330614706e-07 pk1 = 4.251671636e-12
+ k2 = -5.971089207e-02 lk2 = 2.107955217e-07 wk2 = 1.836279421e-07 pk2 = -1.464607285e-12
+ k3 = 1.65
+ dvt0 = 0.07665
+ dvt1 = 0.1252
+ dvt2 = -0.05637
+ dvt0w = 0.0
+ dvt1w = 5300000.0
+ dvt2w = -0.032
+ w0 = 1.0e-7
+ k3b = 1.6
+ vfb = 0.0
* NEW BSIM4 Parameters for Level 54
+ phin = 0.0
+ lpe0 = 2.3802e-7
+ lpeb = -4.9152e-8
+ vbm = -3.0
+ dvtp0 = 0.0
+ dvtp1 = 0.0
* Mobility Parameters
+ vsat = 7.374663231e+04 lvsat = 6.970451310e-01 wvsat = 6.072091187e-01 pvsat = -4.843069571e-6
+ ua = -1.339853632e-09 lua = 3.054264999e-16 wua = 2.660627664e-16 pua = -2.122103322e-21
+ ub = 2.691095738e-18 lub = -1.243110679e-25 wub = -1.082897084e-25 pub = 8.637132995e-31
+ uc = 6.984327633e-11 luc = 2.462364538e-18 wuc = 2.145012044e-18 puc = -1.710850881e-23
+ rdsw = 103.65
+ prwb = 0.0
+ prwg = 0.0
+ wr = 1.0
+ u0 = 3.162294412e-02 lu0 = 3.361511008e-09 wu0 = 2.928275438e-09 pu0 = -2.335577848e-14
+ a0 = 1.990452906e+00 la0 = -2.780738901e-07 wa0 = -2.422353937e-07 pa0 = 1.932057388e-12
+ keta = 0.0
+ a1 = 0.0
+ a2 = 0.38689047
+ ags = 5.175238774e-01 lags = 1.328484010e-07 wags = 1.157267398e-07 pags = -9.230306899e-13
+ b0 = 0.0
+ b1 = 0.0
* BSIM4 - Mobility Parameters
+ eu = 1.67
+ rdswmin = 0.0
+ rdw = 0.0
+ rdwmin = 0.0
+ rsw = 0.0
+ rswmin = 0.0
* Subthreshold Current Parameters
+ voff = {-1.877305306e-01+sky130_fd_pr__nfet_01v8_lvt__voff_slope_spectre*(sky130_fd_pr__nfet_01v8_lvt__voff_slope/sqrt(l*w*mult))} lvoff = 1.794695672e-07 wvoff = 1.563393142e-07 pvoff = -1.246954553e-12
+ nfactor = {8.135225937e-01+sky130_fd_pr__nfet_01v8_lvt__nfactor_slope_spectre*(sky130_fd_pr__nfet_01v8_lvt__nfactor_slope/sqrt(l*w*mult))} lnfactor = 6.789551868e-07 wnfactor = 5.914506282e-07 pnfactor = -4.717380638e-12
+ up = 0.0
+ ud = 0.0
+ lp = 1.0
+ tvfbsdoff = 0.0
+ tvoff = -1.755559010e-03 ltvoff = 1.854407586e-08 wtvoff = 1.615409312e-08 ptvoff = -1.288442391e-13
+ cit = 1.0e-5
+ cdsc = 3.8556e-37
+ cdscb = -0.00011484
+ cdscd = 4.7984e-6
+ eta0 = 0.08
+ etab = -0.07
+ dsub = 0.56
* BSIM4 - Sub-threshold parameters
+ voffl = 0.0
+ minv = 0.0
* Rout Parameters
+ pclm = 3.405322955e-01 lpclm = -1.120878562e-06 wpclm = -9.764183890e-07 ppclm = 7.787864250e-12
+ pdiblc1 = 0.39
+ pdiblc2 = 2.886283880e-03 lpdiblc2 = 1.524535941e-08 wpdiblc2 = 1.328051920e-08 ppdiblc2 = -1.059247572e-13
+ pdiblcb = 0.0
+ drout = 3.4946
+ pscbe1 = 450000000.0
+ pscbe2 = 1.0e-8
+ pvag = 0.0
+ delta = 0.01
+ alpha0 = 1.383516913e-04 lalpha0 = -4.307494292e-10 walpha0 = -3.752339263e-10 palpha0 = 2.992847034e-15
+ alpha1 = 0.0
+ beta0 = 1.812382841e+01 lbeta0 = -2.399535901e-06 wbeta0 = -2.090280837e-06 pbeta0 = 1.667197544e-11
* BSIM4 - Rout Parameters
+ fprout = 0.0
+ pdits = 1.4427e-15
+ pditsl = 0.0
+ pditsd = 0.0
* BSIM4 - Gate Induced Drain Leakage Model Parameters
+ agidl = 0.0
+ bgidl = 2300000000.0
+ cgidl = 0.5
+ egidl = 0.8
* BSIM4 - Gate Leakage Current Parameters
+ aigbacc = 1.0
+ bigbacc = 0.0
+ cigbacc = 0.0
+ nigbacc = 1.0
+ aigbinv = 0.35
+ bigbinv = 0.03
+ cigbinv = 0.006
+ eigbinv = 1.1
+ nigbinv = 3.0
+ aigc = 0.43
+ bigc = 0.054
+ cigc = 0.075
+ nigc = 1.0
+ aigsd = 0.43
+ bigsd = 0.054
+ cigsd = 0.075
+ dlcig = 0.0
+ poxedge = 1.0
+ pigcd = 1.0
+ ntox = 1.0
+ toxref = 4.148e-9
* Temperature Effects Parameters
+ kt1 = -2.532233833e-01 lkt1 = -3.322914083e-09 wkt1 = -2.894652931e-09 pkt1 = 2.308760705e-14
+ kt2 = -3.413777779e-02 lkt2 = -2.274918103e-09 wkt2 = -1.981723930e-09 pkt2 = 1.580613098e-14
+ at = 6.161496924e+05 lat = -2.257749713e+00 wat = -1.966768223e+00 pat = 1.568684501e-5
+ ute = -9.503648401e-01 lute = -1.015618868e-06 wute = -8.847246908e-07 pute = 7.056519897e-12
+ ua1 = 2.422715740e-09 lua1 = 2.070431082e-15 wua1 = 1.803591442e-15 pua1 = -1.438535516e-20
+ ub1 = -1.556867822e-18 lub1 = -7.070138733e-24 wub1 = -6.158930775e-24 pub1 = 4.912332392e-29
+ uc1 = -1.093873687e-11 luc1 = -6.607486849e-17 wuc1 = -5.755906021e-17 puc1 = 4.590881863e-22
+ kt1l = 0.0
+ prt = 0.0
* BSIM4 - High Speed RF Model Parameters
+ xrcrg1 = 12.0
+ xrcrg2 = 1.0
+ rbpb = 50.0
+ rbpd = 50.0
+ rbps = 50.0
+ rbdb = 50.0
+ rbsb = 50.0
+ gbmin = 1.0e-12
* BSIM4 - Flicker and Thermal Noise Parameters
+ noia = 9.0e+41
+ noib = 1.0e+27
+ noic = 800000000000.0
+ em = 41000000.0
+ af = 1.0
+ ef = 1.2
+ kf = 0.0
+ ntnoi = 1.0
* BSIM4 - Layout Dependent Parasitic Model Parameters
+ dmcg = 0.0
+ dmcgt = 0.0
+ dmdg = 0.0
+ xgw = 0.0
+ xgl = 0.0
+ ngcon = 1.0
* Diode DC IV Parameters
* BSIM4 - Diode DC IV parameters
+ diomod = 1.0
+ njs = 1.2928
+ jss = 0.00275
+ jsws = 6.0e-10
+ xtis = 2.0
+ bvs = 11.9
+ xjbvs = 1.0
+ ijthsrev = 0.1
+ ijthsfwd = 0.1
* Diode and FET Capacitance Parameters
+ tpb = 0.0012287
+ tpbsw = 0.0
+ tpbswg = 0.0
+ tcj = 0.000792
+ tcjsw = 1.0e-5
+ tcjswg = 0.0
+ cgdo = 2.392894381e-10
+ cgso = 2.392894381e-10
+ cgbo = 1.0e-14
+ capmod = 2.0
+ xpart = 0.0
+ cgsl = 2.310725e-11
+ cgdl = 2.310725e-11
+ cf = 1.0e-14
+ clc = 1.0e-7
+ cle = 0.6
+ dlc = 1.21071e-8
+ dwc = 2.6e-8
+ vfbcv = -1.0
+ acde = 0.38008
+ moin = 23.81
+ noff = 3.8661
+ voffcv = -0.16994
+ ngate = 1.0e+23
+ lwc = 0.0
+ llc = 0.0
+ lwlc = 0.0
+ wlc = 0.0
+ wwc = 0.0
+ wwlc = 0.0
* BSIM4 - FET and Diode capacitance parameters
+ ckappas = 0.6
+ cjs = 0.0012094836
+ mjs = 0.42197
+ pbs = 0.7477
+ cjsws = 3.230311424e-11
+ mjsws = 0.001
+ pbsws = 0.1
+ cjswgs = 1.795291232e-10
+ mjswgs = 0.8
+ pbswgs = 0.79644
* Stress Parameters
+ saref = 3.0e-6
+ sbref = 3.0e-6
+ wlod = {0+sky130_fd_pr__nfet_01v8_lvt__wlod_diff}
+ kvth0 = {0+sky130_fd_pr__nfet_01v8_lvt__kvth0_diff}
+ lkvth0 = {0+sky130_fd_pr__nfet_01v8_lvt__lkvth0_diff}
+ wkvth0 = {0+sky130_fd_pr__nfet_01v8_lvt__wkvth0_diff}
+ pkvth0 = 0.0
+ llodvth = 0.0
+ wlodvth = 1.0
+ stk2 = 0.0
+ lodk2 = 1.0
+ lodeta0 = 1.0
+ ku0 = {0+sky130_fd_pr__nfet_01v8_lvt__ku0_diff}
+ lku0 = {0+sky130_fd_pr__nfet_01v8_lvt__lku0_diff}
+ wku0 = {0+sky130_fd_pr__nfet_01v8_lvt__wku0_diff}
+ pku0 = 0.0
+ llodku0 = 0.0
+ wlodku0 = 1.0
+ kvsat = {0+sky130_fd_pr__nfet_01v8_lvt__kvsat_diff}
+ steta0 = 0.0
+ tku0 = 0.0
.model sky130_fd_pr__nfet_01v8_lvt__model.2 nmos
* DC IV MOS Parameters
+ lmin = 2e-06 lmax = 4e-06 wmin = 7e-06 wmax = 1.0e-4
+ level = 54.0
+ tnom = 30.0
+ version = 4.5
+ toxm = 4.148e-9
+ xj = 1.5e-7
+ lln = 1.0
+ lwn = 1.0
+ wln = 1.0
+ wwn = 1.0
+ lint = 1.2025e-8
+ ll = 0.0
+ lw = 0.0
+ lwl = 0.0
+ wint = 2.6e-8
+ wl = 0.0
+ ww = 0.0
+ wwl = 0.0
+ xl = 0.0
+ xw = 0.0
+ mobmod = 0.0
+ binunit = 2.0
+ dwg = -1.33e-8
+ dwb = -1.08e-8
* BSIM4 - Model Selectors
+ igcmod = 0.0
+ igbmod = 0.0
+ rgatemod = 0.0
+ rbodymod = 1.0
+ trnqsmod = 0.0
+ acnqsmod = 0.0
+ fnoimod = 1.0
+ tnoimod = 1.0
+ permod = 1.0
+ geomod = 0.0
+ rdsmod = 0.0
+ tempmod = 0.0
+ lintnoi = -3.0e-7
+ vfbsdoff = 0.0
+ lambda = 0.0
+ vtl = 0.0
+ lc = 0.0
+ xn = 0.0
+ rnoia = 0.912
+ rnoib = 0.26
+ tnoia = 25000000.0
+ tnoib = 9900000.0
* BSIM4 - Process Parameters
+ epsrox = 3.9
+ toxe = {4.148e-09+sky130_fd_pr__nfet_01v8_lvt__toxe_slope_spectre*(4.148e-09*(sky130_fd_pr__nfet_01v8_lvt__toxe_slope/sqrt(l*w*mult)))}
+ dtox = 0.0
+ ndep = 1.7000000000000000e+17
+ nsd = 1.0e+20
+ rshg = 0.1
+ rsh = 1.0
* Threshold Voltage Parameters
+ vth0 = {4.271027291e-01+sky130_fd_pr__nfet_01v8_lvt__vth0_slope_spectre*(sky130_fd_pr__nfet_01v8_lvt__vth0_slope/sqrt(l*w*mult))} lvth0 = 1.320165971e-08 wvth0 = -1.509494704e-07 pvth0 = 2.982686060e-13
+ k1 = 3.599249359e-01 lk1 = 1.392354435e-07 wk1 = 1.066122941e-06 pk1 = -2.106605626e-12
+ k2 = 4.780166941e-03 lk2 = -4.561770435e-08 wk2 = -3.672558843e-07 pk2 = 7.256792645e-13
+ k3 = 1.65
+ dvt0 = 0.07665
+ dvt1 = 0.1252
+ dvt2 = -0.05637
+ dvt0w = 0.0
+ dvt1w = 5300000.0
+ dvt2w = -0.032
+ w0 = 1.0e-7
+ k3b = 1.6
+ vfb = 0.0
* NEW BSIM4 Parameters for Level 54
+ phin = 0.0
+ lpe0 = 2.3802e-7
+ lpeb = -4.9152e-8
+ vbm = -3.0
+ dvtp0 = 0.0
+ dvtp1 = 0.0
* Mobility Parameters
+ vsat = 4.501850562e+05 lvsat = -7.996552203e-01 wvsat = -1.214418237e+00 pvsat = 2.399629716e-6
+ ua = -1.300809062e-09 lua = 1.501872405e-16 wua = -5.321255328e-16 pua = 1.051453447e-21
+ ub = 2.626614252e-18 lub = 1.320640957e-25 wub = 2.165794168e-25 pub = -4.279500985e-31
+ uc = 6.801003316e-11 luc = 9.751247726e-18 wuc = -4.290024088e-18 puc = 8.476873096e-24
+ rdsw = 103.65
+ prwb = 0.0
+ prwg = 0.0
+ wr = 1.0
+ u0 = 3.074201296e-02 lu0 = 6.864049260e-09 wu0 = -5.856550877e-09 pu0 = 1.157225170e-14
+ a0 = 1.870577644e+00 la0 = 1.985441598e-07 wa0 = 4.844707874e-07 pa0 = -9.572900523e-13
+ keta = 1.823110268e-01 lketa = -7.248595268e-7
+ a1 = 0.0
+ a2 = 0.38689047
+ ags = -3.716639461e-01 lags = 3.668214728e-06 wags = -2.314534795e-07 pags = 4.573405028e-13
+ b0 = 0.0
+ b1 = 0.0
* BSIM4 - Mobility Parameters
+ eu = 1.67
+ rdswmin = 0.0
+ rdw = 0.0
+ rdwmin = 0.0
+ rsw = 0.0
+ rswmin = 0.0
* Subthreshold Current Parameters
+ voff = {-1.448613000e-01+sky130_fd_pr__nfet_01v8_lvt__voff_slope_spectre*(sky130_fd_pr__nfet_01v8_lvt__voff_slope/sqrt(l*w*mult))} lvoff = 9.023649845e-09 wvoff = -3.126786283e-07 pvoff = 6.178373356e-13
+ nfactor = {1.012415290e+00+sky130_fd_pr__nfet_01v8_lvt__nfactor_slope_spectre*(sky130_fd_pr__nfet_01v8_lvt__nfactor_slope/sqrt(l*w*mult))} lnfactor = -1.118322301e-07 wnfactor = -1.182901256e-06 pnfactor = 2.337353737e-12
+ up = 0.0
+ ud = 0.0
+ lp = 1.0
+ tvfbsdoff = 0.0
+ tvoff = 2.591859230e-03 ltvoff = 1.258958305e-09 wtvoff = -3.230818625e-08 ptvoff = 6.383936062e-14
+ cit = 1.0e-5
+ cdsc = 3.8556e-37
+ cdscb = -0.00011484
+ cdscd = 4.7984e-6
+ eta0 = 1.585440125e-01 leta0 = -3.122870665e-7
+ etab = -1.386642625e-01 letab = 2.730056745e-7
+ dsub = 8.336952366e-01 ldsub = -1.088198576e-6
* BSIM4 - Sub-threshold parameters
+ voffl = 0.0
+ minv = 0.0
* Rout Parameters
+ pclm = -1.108026385e-01 lpclm = 6.736065685e-07 wpclm = 1.952836778e-06 ppclm = -3.858707832e-12
+ pdiblc1 = 0.39
+ pdiblc2 = 4.773555186e-03 lpdiblc2 = 7.741663056e-09 wpdiblc2 = -2.656103841e-08 ppdiblc2 = 5.248328385e-14
+ pdiblcb = 0.0
+ drout = 3.4946
+ pscbe1 = 450000000.0
+ pscbe2 = 1.0e-8
+ pvag = 0.0
+ delta = 0.01
+ alpha0 = -6.460214106e-05 lalpha0 = 3.761848605e-10 walpha0 = 7.504678525e-10 palpha0 = -1.482886953e-15
+ alpha1 = 0.0
+ beta0 = 1.378943650e+01 lbeta0 = 1.483378959e-05 wbeta0 = 4.180561674e-06 pbeta0 = -8.260580840e-12
* BSIM4 - Rout Parameters
+ fprout = 0.0
+ pdits = 1.4427e-15
+ pditsl = 0.0
+ pditsd = 0.0
* BSIM4 - Gate Induced Drain Leakage Model Parameters
+ agidl = 0.0
+ bgidl = 2300000000.0
+ cgidl = 0.5
+ egidl = 0.8
* BSIM4 - Gate Leakage Current Parameters
+ aigbacc = 1.0
+ bigbacc = 0.0
+ cigbacc = 0.0
+ nigbacc = 1.0
+ aigbinv = 0.35
+ bigbinv = 0.03
+ cigbinv = 0.006
+ eigbinv = 1.1
+ nigbinv = 3.0
+ aigc = 0.43
+ bigc = 0.054
+ cigc = 0.075
+ nigc = 1.0
+ aigsd = 0.43
+ bigsd = 0.054
+ cigsd = 0.075
+ dlcig = 0.0
+ poxedge = 1.0
+ pigcd = 1.0
+ ntox = 1.0
+ toxref = 4.148e-9
* Temperature Effects Parameters
+ kt1 = -2.544831132e-01 lkt1 = 1.685708985e-09 wkt1 = 5.789305862e-09 pkt1 = -1.143937892e-14
+ kt2 = -3.970410922e-02 lkt2 = 1.985653737e-08 wkt2 = 3.963447860e-09 pkt2 = -7.831574798e-15
+ at = 4.525514858e+04 lat = 1.209844826e-02 wat = 3.933536446e+00 pat = -7.772471341e-6
+ ute = -1.241970607e+00 lute = 1.437910814e-07 wute = 1.769449382e-06 pute = -3.496343505e-12
+ ua1 = 2.638520366e-09 lua1 = 1.212402678e-15 wua1 = -3.607182884e-15 pua1 = 7.127613019e-21
+ ub1 = -2.908579444e-18 lub1 = -1.695800907e-24 wub1 = 1.231786155e-23 pub1 = -2.433947853e-29
+ uc1 = -2.045321438e-11 luc1 = -2.824578165e-17 wuc1 = 1.151181204e-16 puc1 = -2.274676500e-22
+ kt1l = 0.0
+ prt = 0.0
* BSIM4 - High Speed RF Model Parameters
+ xrcrg1 = 12.0
+ xrcrg2 = 1.0
+ rbpb = 50.0
+ rbpd = 50.0
+ rbps = 50.0
+ rbdb = 50.0
+ rbsb = 50.0
+ gbmin = 1.0e-12
* BSIM4 - Flicker and Thermal Noise Parameters
+ noia = 9.0e+41
+ noib = 1.0e+27
+ noic = 800000000000.0
+ em = 41000000.0
+ af = 1.0
+ ef = 1.2
+ kf = 0.0
+ ntnoi = 1.0
* BSIM4 - Layout Dependent Parasitic Model Parameters
+ dmcg = 0.0
+ dmcgt = 0.0
+ dmdg = 0.0
+ xgw = 0.0
+ xgl = 0.0
+ ngcon = 1.0
* Diode DC IV Parameters
* BSIM4 - Diode DC IV parameters
+ diomod = 1.0
+ njs = 1.2928
+ jss = 0.00275
+ jsws = 6.0e-10
+ xtis = 2.0
+ bvs = 11.9
+ xjbvs = 1.0
+ ijthsrev = 0.1
+ ijthsfwd = 0.1
* Diode and FET Capacitance Parameters
+ tpb = 0.0012287
+ tpbsw = 0.0
+ tpbswg = 0.0
+ tcj = 0.000792
+ tcjsw = 1.0e-5
+ tcjswg = 0.0
+ cgdo = 2.392894381e-10
+ cgso = 2.392894381e-10
+ cgbo = 1.0e-14
+ capmod = 2.0
+ xpart = 0.0
+ cgsl = 2.310725e-11
+ cgdl = 2.310725e-11
+ cf = 1.0e-14
+ clc = 1.0e-7
+ cle = 0.6
+ dlc = 1.21071e-8
+ dwc = 2.6e-8
+ vfbcv = -1.0
+ acde = 0.38008
+ moin = 23.81
+ noff = 3.8661
+ voffcv = -0.16994
+ ngate = 1.0e+23
+ lwc = 0.0
+ llc = 0.0
+ lwlc = 0.0
+ wlc = 0.0
+ wwc = 0.0
+ wwlc = 0.0
* BSIM4 - FET and Diode capacitance parameters
+ ckappas = 0.6
+ cjs = 0.0012094836
+ mjs = 0.42197
+ pbs = 0.7477
+ cjsws = 3.230311424e-11
+ mjsws = 0.001
+ pbsws = 0.1
+ cjswgs = 1.795291232e-10
+ mjswgs = 0.8
+ pbswgs = 0.79644
* Stress Parameters
+ saref = 3.0e-6
+ sbref = 3.0e-6
+ wlod = {0+sky130_fd_pr__nfet_01v8_lvt__wlod_diff}
+ kvth0 = {0+sky130_fd_pr__nfet_01v8_lvt__kvth0_diff}
+ lkvth0 = {0+sky130_fd_pr__nfet_01v8_lvt__lkvth0_diff}
+ wkvth0 = {0+sky130_fd_pr__nfet_01v8_lvt__wkvth0_diff}
+ pkvth0 = 0.0
+ llodvth = 0.0
+ wlodvth = 1.0
+ stk2 = 0.0
+ lodk2 = 1.0
+ lodeta0 = 1.0
+ ku0 = {0+sky130_fd_pr__nfet_01v8_lvt__ku0_diff}
+ lku0 = {0+sky130_fd_pr__nfet_01v8_lvt__lku0_diff}
+ wku0 = {0+sky130_fd_pr__nfet_01v8_lvt__wku0_diff}
+ pku0 = 0.0
+ llodku0 = 0.0
+ wlodku0 = 1.0
+ kvsat = {0+sky130_fd_pr__nfet_01v8_lvt__kvsat_diff}
+ steta0 = 0.0
+ tku0 = 0.0
.model sky130_fd_pr__nfet_01v8_lvt__model.3 nmos
* DC IV MOS Parameters
+ lmin = 1e-06 lmax = 2e-06 wmin = 7e-06 wmax = 1.0e-4
+ level = 54.0
+ tnom = 30.0
+ version = 4.5
+ toxm = 4.148e-9
+ xj = 1.5e-7
+ lln = 1.0
+ lwn = 1.0
+ wln = 1.0
+ wwn = 1.0
+ lint = 1.2025e-8
+ ll = 0.0
+ lw = 0.0
+ lwl = 0.0
+ wint = 2.6e-8
+ wl = 0.0
+ ww = 0.0
+ wwl = 0.0
+ xl = 0.0
+ xw = 0.0
+ mobmod = 0.0
+ binunit = 2.0
+ dwg = -1.33e-8
+ dwb = -1.08e-8
* BSIM4 - Model Selectors
+ igcmod = 0.0
+ igbmod = 0.0
+ rgatemod = 0.0
+ rbodymod = 1.0
+ trnqsmod = 0.0
+ acnqsmod = 0.0
+ fnoimod = 1.0
+ tnoimod = 1.0
+ permod = 1.0
+ geomod = 0.0
+ rdsmod = 0.0
+ tempmod = 0.0
+ lintnoi = -3.0e-7
+ vfbsdoff = 0.0
+ lambda = 0.0
+ vtl = 0.0
+ lc = 0.0
+ xn = 0.0
+ rnoia = 0.912
+ rnoib = 0.26
+ tnoia = 25000000.0
+ tnoib = 9900000.0
* BSIM4 - Process Parameters
+ epsrox = 3.9
+ toxe = {4.148e-09+sky130_fd_pr__nfet_01v8_lvt__toxe_slope_spectre*(4.148e-09*(sky130_fd_pr__nfet_01v8_lvt__toxe_slope/sqrt(l*w*mult)))}
+ dtox = 0.0
+ ndep = 1.7000000000000000e+17
+ nsd = 1.0e+20
+ rshg = 0.1
+ rsh = 1.0
* Threshold Voltage Parameters
+ vth0 = {4.283271684e-01+sky130_fd_pr__nfet_01v8_lvt__vth0_slope_spectre*(sky130_fd_pr__nfet_01v8_lvt__vth0_slope/sqrt(l*w*mult))} lvth0 = 1.078222888e-8
+ k1 = 4.290139105e-01 lk1 = 2.719084048e-9
+ k2 = -1.426108485e-02 lk2 = -7.993142886e-9
+ k3 = 1.65
+ dvt0 = 0.07665
+ dvt1 = 0.1252
+ dvt2 = -0.05637
+ dvt0w = 0.0
+ dvt1w = 5300000.0
+ dvt2w = -0.032
+ w0 = 1.0e-7
+ k3b = 1.6
+ vfb = 0.0
* NEW BSIM4 Parameters for Level 54
+ phin = 0.0
+ lpe0 = 2.3802e-7
+ lpeb = -4.9152e-8
+ vbm = -3.0
+ dvtp0 = 0.0
+ dvtp1 = 0.0
* Mobility Parameters
+ vsat = 1.918426775e+04 lvsat = 5.198078759e-2
+ ua = -9.501342298e-10 lua = -5.427286938e-16
+ ub = 2.617706520e-18 lub = 1.496653283e-25
+ uc = 5.966524835e-11 luc = 2.624012527e-17
+ rdsw = 103.65
+ prwb = 0.0
+ prwg = 0.0
+ wr = 1.0
+ u0 = 3.826825694e-02 lu0 = -8.007432540e-9
+ a0 = 2.177368462e+00 la0 = -4.076591579e-7
+ keta = -1.449161895e-01 lketa = -7.827490886e-8
+ a1 = 0.0
+ a2 = 0.38689047
+ ags = 8.127078230e-01 lags = 1.327955331e-6
+ b0 = 0.0
+ b1 = 0.0
* BSIM4 - Mobility Parameters
+ eu = 1.67
+ rdswmin = 0.0
+ rdw = 0.0
+ rdwmin = 0.0
+ rsw = 0.0
+ rswmin = 0.0
* Subthreshold Current Parameters
+ voff = {-1.319292143e-01+sky130_fd_pr__nfet_01v8_lvt__voff_slope_spectre*(sky130_fd_pr__nfet_01v8_lvt__voff_slope/sqrt(l*w*mult))} lvoff = -1.652950477e-8
+ nfactor = {7.326033174e-01+sky130_fd_pr__nfet_01v8_lvt__nfactor_slope_spectre*(sky130_fd_pr__nfet_01v8_lvt__nfactor_slope/sqrt(l*w*mult))} lnfactor = 4.410622377e-7
+ up = 0.0
+ ud = 0.0
+ lp = 1.0
+ tvfbsdoff = 0.0
+ tvoff = 4.291907145e-03 ltvoff = -2.100251373e-9
+ cit = 1.487975000e-05 lcit = -9.642142013e-12
+ cdsc = 3.8556e-37
+ cdscb = -0.00011484
+ cdscd = 4.7984e-6
+ eta0 = 5.912122870e-04 leta0 = -1.802309185e-10
+ etab = -5.415949890e-04 letab = 8.218961851e-11
+ dsub = -5.153016090e-02 ldsub = 6.609625483e-7
* BSIM4 - Sub-threshold parameters
+ voffl = 0.0
+ minv = 0.0
* Rout Parameters
+ pclm = 2.292314045e-01 lpclm = 1.716301278e-9
+ pdiblc1 = 0.39
+ pdiblc2 = 7.015305875e-03 lpdiblc2 = 3.312075781e-9
+ pdiblcb = 0.0
+ drout = 3.4946
+ pscbe1 = 450000000.0
+ pscbe2 = 1.0e-8
+ pvag = 0.0
+ delta = 0.01
+ alpha0 = 1.865945616e-04 lalpha0 = -1.201672640e-10
+ alpha1 = 0.0
+ beta0 = 2.119695075e+01 lbeta0 = 1.969118242e-7
* BSIM4 - Rout Parameters
+ fprout = 0.0
+ pdits = 1.4427e-15
+ pditsl = 0.0
+ pditsd = 0.0
* BSIM4 - Gate Induced Drain Leakage Model Parameters
+ agidl = 0.0
+ bgidl = 2300000000.0
+ cgidl = 0.5
+ egidl = 0.8
* BSIM4 - Gate Leakage Current Parameters
+ aigbacc = 1.0
+ bigbacc = 0.0
+ cigbacc = 0.0
+ nigbacc = 1.0
+ aigbinv = 0.35
+ bigbinv = 0.03
+ cigbinv = 0.006
+ eigbinv = 1.1
+ nigbinv = 3.0
+ aigc = 0.43
+ bigc = 0.054
+ cigc = 0.075
+ nigc = 1.0
+ aigsd = 0.43
+ bigsd = 0.054
+ cigsd = 0.075
+ dlcig = 0.0
+ poxedge = 1.0
+ pigcd = 1.0
+ ntox = 1.0
+ toxref = 4.148e-9
* Temperature Effects Parameters
+ kt1 = -2.506826310e-01 lkt1 = -5.823853776e-9
+ kt2 = -4.595043715e-02 lkt2 = 3.219896904e-8
+ at = 3.099626020e+04 lat = 4.027329876e-2
+ ute = -1.324376050e+00 lute = 3.066201160e-7
+ ua1 = 3.273961280e-09 lua1 = -4.319679622e-17
+ ub1 = -3.908312750e-18 lub1 = 2.796221184e-25
+ uc1 = 1.127389820e-11 luc1 = -9.093696975e-17
+ kt1l = 0.0
+ prt = 0.0
* BSIM4 - High Speed RF Model Parameters
+ xrcrg1 = 12.0
+ xrcrg2 = 1.0
+ rbpb = 50.0
+ rbpd = 50.0
+ rbps = 50.0
+ rbdb = 50.0
+ rbsb = 50.0
+ gbmin = 1.0e-12
* BSIM4 - Flicker and Thermal Noise Parameters
+ noia = 9.0e+41
+ noib = 1.0e+27
+ noic = 800000000000.0
+ em = 41000000.0
+ af = 1.0
+ ef = 1.2
+ kf = 0.0
+ ntnoi = 1.0
* BSIM4 - Layout Dependent Parasitic Model Parameters
+ dmcg = 0.0
+ dmcgt = 0.0
+ dmdg = 0.0
+ xgw = 0.0
+ xgl = 0.0
+ ngcon = 1.0
* Diode DC IV Parameters
* BSIM4 - Diode DC IV parameters
+ diomod = 1.0
+ njs = 1.2928
+ jss = 0.00275
+ jsws = 6.0e-10
+ xtis = 2.0
+ bvs = 11.9
+ xjbvs = 1.0
+ ijthsrev = 0.1
+ ijthsfwd = 0.1
* Diode and FET Capacitance Parameters
+ tpb = 0.0012287
+ tpbsw = 0.0
+ tpbswg = 0.0
+ tcj = 0.000792
+ tcjsw = 1.0e-5
+ tcjswg = 0.0
+ cgdo = 2.392894381e-10
+ cgso = 2.392894381e-10
+ cgbo = 1.0e-14
+ capmod = 2.0
+ xpart = 0.0
+ cgsl = 2.310725e-11
+ cgdl = 2.310725e-11
+ cf = 1.0e-14
+ clc = 1.0e-7
+ cle = 0.6
+ dlc = 1.21071e-8
+ dwc = 2.6e-8
+ vfbcv = -1.0
+ acde = 0.38008
+ moin = 23.81
+ noff = 3.8661
+ voffcv = -0.16994
+ ngate = 1.0e+23
+ lwc = 0.0
+ llc = 0.0
+ lwlc = 0.0
+ wlc = 0.0
+ wwc = 0.0
+ wwlc = 0.0
* BSIM4 - FET and Diode capacitance parameters
+ ckappas = 0.6
+ cjs = 0.0012094836
+ mjs = 0.42197
+ pbs = 0.7477
+ cjsws = 3.230311424e-11
+ mjsws = 0.001
+ pbsws = 0.1
+ cjswgs = 1.795291232e-10
+ mjswgs = 0.8
+ pbswgs = 0.79644
* Stress Parameters
+ saref = 2.74e-6
+ sbref = 2.74e-6
+ wlod = {0+sky130_fd_pr__nfet_01v8_lvt__wlod_diff}
+ kvth0 = {0+sky130_fd_pr__nfet_01v8_lvt__kvth0_diff}
+ lkvth0 = {0+sky130_fd_pr__nfet_01v8_lvt__lkvth0_diff}
+ wkvth0 = {0+sky130_fd_pr__nfet_01v8_lvt__wkvth0_diff}
+ pkvth0 = 0.0
+ llodvth = 0.0
+ wlodvth = 1.0
+ stk2 = 0.0
+ lodk2 = 1.0
+ lodeta0 = 1.0
+ ku0 = {0+sky130_fd_pr__nfet_01v8_lvt__ku0_diff}
+ lku0 = {0+sky130_fd_pr__nfet_01v8_lvt__lku0_diff}
+ wku0 = {0+sky130_fd_pr__nfet_01v8_lvt__wku0_diff}
+ pku0 = 0.0
+ llodku0 = 0.0
+ wlodku0 = 1.0
+ kvsat = {0+sky130_fd_pr__nfet_01v8_lvt__kvsat_diff}
+ steta0 = 0.0
+ tku0 = 0.0
.model sky130_fd_pr__nfet_01v8_lvt__model.4 nmos
* DC IV MOS Parameters
+ lmin = 5e-07 lmax = 1e-06 wmin = 7e-06 wmax = 1.0e-4
+ level = 54.0
+ tnom = 30.0
+ version = 4.5
+ toxm = 4.148e-9
+ xj = 1.5e-7
+ lln = 1.0
+ lwn = 1.0
+ wln = 1.0
+ wwn = 1.0
+ lint = 1.2025e-8
+ ll = 0.0
+ lw = 0.0
+ lwl = 0.0
+ wint = 2.6e-8
+ wl = 0.0
+ ww = 0.0
+ wwl = 0.0
+ xl = 0.0
+ xw = 0.0
+ mobmod = 0.0
+ binunit = 2.0
+ dwg = -1.33e-8
+ dwb = -1.08e-8
* BSIM4 - Model Selectors
+ igcmod = 0.0
+ igbmod = 0.0
+ rgatemod = 0.0
+ rbodymod = 1.0
+ trnqsmod = 0.0
+ acnqsmod = 0.0
+ fnoimod = 1.0
+ tnoimod = 1.0
+ permod = 1.0
+ geomod = 0.0
+ rdsmod = 0.0
+ tempmod = 0.0
+ lintnoi = -3.0e-7
+ vfbsdoff = 0.0
+ lambda = 0.0
+ vtl = 0.0
+ lc = 0.0
+ xn = 0.0
+ rnoia = 0.912
+ rnoib = 0.26
+ tnoia = 25000000.0
+ tnoib = 9900000.0
* BSIM4 - Process Parameters
+ epsrox = 3.9
+ toxe = {4.148e-09+sky130_fd_pr__nfet_01v8_lvt__toxe_slope_spectre*(4.148e-09*(sky130_fd_pr__nfet_01v8_lvt__toxe_slope/sqrt(l*w*mult)))}
+ dtox = 0.0
+ ndep = 1.7000000000000000e+17
+ nsd = 1.0e+20
+ rshg = 0.1
+ rsh = 1.0
* Threshold Voltage Parameters
+ vth0 = {4.433972583e-01+sky130_fd_pr__nfet_01v8_lvt__vth0_slope_spectre*(sky130_fd_pr__nfet_01v8_lvt__vth0_slope/sqrt(l*w*mult))} lvth0 = -3.925425354e-9
+ k1 = 4.337989900e-01 lk1 = -1.950914290e-9
+ k2 = -1.718793358e-02 lk2 = -5.136684864e-9
+ k3 = 1.65
+ dvt0 = 0.07665
+ dvt1 = 0.1252
+ dvt2 = -0.05637
+ dvt0w = 0.0
+ dvt1w = 5300000.0
+ dvt2w = -0.032
+ w0 = 1.0e-7