* Copyright 2020 The SkyWater PDK Authors
*
* Licensed under the Apache License, Version 2.0 (the "License");
* you may not use this file except in compliance with the License.
* You may obtain a copy of the License at
*
*     https://www.apache.org/licenses/LICENSE-2.0
*
* Unless required by applicable law or agreed to in writing, software
* distributed under the License is distributed on an "AS IS" BASIS,
* WITHOUT WARRANTIES OR CONDITIONS OF ANY KIND, either express or implied.
* See the License for the specific language governing permissions and
* limitations under the License.

* SKY130 Spice File.
.param sky130_fd_pr__nfet_01v8_lvt__toxe_slope_spectre = 0.0
.param sky130_fd_pr__nfet_01v8_lvt__vth0_slope_spectre = 0.0
.param sky130_fd_pr__nfet_01v8_lvt__voff_slope_spectre = 0.0
.param sky130_fd_pr__nfet_01v8_lvt__nfactor_slope_spectre = 0.0
* statistics {
*   process {
*   }
*   mismatch {
*     vary sky130_fd_pr__nfet_01v8_lvt__toxe_slope_spectre dist=gauss std = 1.0
*     vary sky130_fd_pr__nfet_01v8_lvt__vth0_slope_spectre dist=gauss std = 1.0
*     vary sky130_fd_pr__nfet_01v8_lvt__voff_slope_spectre dist=gauss std = 1.0
*     vary sky130_fd_pr__nfet_01v8_lvt__nfactor_slope_spectre dist=gauss std = 1.0
*   }
* }
.subckt  sky130_fd_pr__nfet_01v8_lvt d g s b
+ 
.param  l = 1 w = 1 ad = 0 as = 0 pd = 0 ps = 0 nrd = 0 nrs = 0 sa = 0 sb = 0 sd = 0 mult = 1 nf = 1.0
msky130_fd_pr__nfet_01v8_lvt d g s b sky130_fd_pr__nfet_01v8_lvt__model l = {l} w = {w} ad = {ad} as = {as} pd = {pd} ps = {ps} nrd = {nrd} nrs = {nrs} sa = {sa} sb = {sb} sd = {sd} nf = {nf}
.model sky130_fd_pr__nfet_01v8_lvt__model.0 nmos
* DC IV MOS Parameters
+ lmin = 8e-06 lmax = 1.0e-04 wmin = 7e-06 wmax = 1.0e-4
+ level = 54.0
+ tnom = 30.0
+ version = 4.5
+ toxm = 4.148e-9
+ xj = 1.5e-7
+ lln = 1.0
+ lwn = 1.0
+ wln = 1.0
+ wwn = 1.0
+ lint = -1.025e-10
+ ll = 0.0
+ lw = 0.0
+ lwl = 0.0
+ wint = 4.852e-8
+ wl = 0.0
+ ww = 0.0
+ wwl = 0.0
+ xl = 0.0
+ xw = 0.0
+ mobmod = 0.0
+ binunit = 2.0
+ dwg = -1.33e-8
+ dwb = -1.08e-8
* BSIM4 - Model Selectors
+ igcmod = 0.0
+ igbmod = 0.0
+ rgatemod = 0.0
+ rbodymod = 1.0
+ trnqsmod = 0.0
+ acnqsmod = 0.0
+ fnoimod = 1.0
+ tnoimod = 1.0
+ permod = 1.0
+ geomod = 0.0
+ rdsmod = 0.0
+ tempmod = 0.0
+ lintnoi = -3.0e-7
+ vfbsdoff = 0.0
+ lambda = 0.0
+ vtl = 0.0
+ lc = 0.0
+ xn = 0.0
+ rnoia = 0.912
+ rnoib = 0.26
+ tnoia = 25000000.0
+ tnoib = 9900000.0
* BSIM4 - Process Parameters
+ epsrox = 3.9
+ toxe = {4.299402e-09+sky130_fd_pr__nfet_01v8_lvt__toxe_slope_spectre*(4.299402e-09*(sky130_fd_pr__nfet_01v8_lvt__toxe_slope/sqrt(l*w*mult)))}
+ dtox = 0.0
+ ndep = 1.7000000000000000e+17
+ nsd = 1.0e+20
+ rshg = 0.1
+ rsh = 1.0
* Threshold Voltage Parameters
+ vth0 = {0.4177611+sky130_fd_pr__nfet_01v8_lvt__vth0_slope_spectre*(sky130_fd_pr__nfet_01v8_lvt__vth0_slope/sqrt(l*w*mult))}
+ k1 = 0.47213
+ k2 = -0.0324753
+ k3 = 1.65
+ dvt0 = 0.07665
+ dvt1 = 0.1252
+ dvt2 = -0.05637
+ dvt0w = 0.0
+ dvt1w = 5300000.0
+ dvt2w = -0.032
+ w0 = 1.0e-7
+ k3b = 1.6
+ vfb = 0.0
* NEW BSIM4 Parameters for Level 54
+ phin = 0.0
+ lpe0 = 2.3802e-7
+ lpeb = -4.9152e-8
+ vbm = -3.0
+ dvtp0 = 0.0
+ dvtp1 = 0.0
* Mobility Parameters
+ vsat = 161140.0
+ ua = -1.3012667e-9
+ ub = 2.63804e-18
+ uc = 7.0152e-11
+ rdsw = 103.65
+ prwb = 0.0
+ prwg = 0.0
+ wr = 1.0
+ u0 = 0.03165736
+ a0 = 1.9649815
+ keta = 0.0
+ a1 = 0.0
+ a2 = 0.38689047
+ ags = 0.503487
+ b0 = 0.0
+ b1 = 0.0
* BSIM4 - Mobility Parameters
+ eu = 1.67
+ rdswmin = 0.0
+ rdw = 0.0
+ rdwmin = 0.0
+ rsw = 0.0
+ rswmin = 0.0
* Subthreshold Current Parameters
+ voff = {-0.11559919+sky130_fd_pr__nfet_01v8_lvt__voff_slope_spectre*(sky130_fd_pr__nfet_01v8_lvt__voff_slope/sqrt(l*w*mult))}
+ nfactor = {1.1501979+sky130_fd_pr__nfet_01v8_lvt__nfactor_slope_spectre*(sky130_fd_pr__nfet_01v8_lvt__nfactor_slope/sqrt(l*w*mult))}
+ up = 0.0
+ ud = 0.0
+ lp = 1.0
+ tvfbsdoff = 0.0
+ tvoff = 0.0
+ cit = 1.0e-5
+ cdsc = 3.8556e-37
+ cdscb = -0.00011484
+ cdscd = 4.7984e-6
+ eta0 = 0.08
+ etab = -0.07
+ dsub = 0.56
* BSIM4 - Sub-threshold parameters
+ voffl = 0.0
+ minv = 0.0
* Rout Parameters
+ pclm = 0.2
+ pdiblc1 = 0.39
+ pdiblc2 = 0.0047977
+ pdiblcb = 0.0
+ drout = 3.4946
+ pscbe1 = 450000000.0
+ pscbe2 = 1.0e-8
+ pvag = 0.0
+ delta = 0.01
+ alpha0 = 8.4345657e-5
+ alpha1 = 0.0
+ beta0 = 17.822982
* BSIM4 - Rout Parameters
+ fprout = 0.0
+ pdits = 1.4427e-15
+ pditsl = 0.0
+ pditsd = 0.0
* BSIM4 - Gate Induced Drain Leakage Model Parameters
+ agidl = 0.0
+ bgidl = 2300000000.0
+ cgidl = 0.5
+ egidl = 0.8
* BSIM4 - Gate Leakage Current Parameters
+ aigbacc = 1.0
+ bigbacc = 0.0
+ cigbacc = 0.0
+ nigbacc = 1.0
+ aigbinv = 0.35
+ bigbinv = 0.03
+ cigbinv = 0.006
+ eigbinv = 1.1
+ nigbinv = 3.0
+ aigc = 0.43
+ bigc = 0.054
+ cigc = 0.075
+ nigc = 1.0
+ aigsd = 0.43
+ bigsd = 0.054
+ cigsd = 0.075
+ dlcig = 0.0
+ poxedge = 1.0
+ pigcd = 1.0
+ ntox = 1.0
+ toxref = 4.148e-9
* Temperature Effects Parameters
+ kt1 = -0.25364
+ kt2 = -0.034423
+ at = 333080.0
+ ute = -1.0777
+ ua1 = 2.6823e-9
+ ub1 = -2.4433e-18
+ uc1 = -1.9223e-11
+ kt1l = 0.0
+ prt = 0.0
* BSIM4 - High Speed RF Model Parameters
+ xrcrg1 = 12.0
+ xrcrg2 = 1.0
+ rbpb = 50.0
+ rbpd = 50.0
+ rbps = 50.0
+ rbdb = 50.0
+ rbsb = 50.0
+ gbmin = 1.0e-12
* BSIM4 - Flicker and Thermal Noise Parameters
+ noia = 9.0e+41
+ noib = 1.0e+27
+ noic = 800000000000.0
+ em = 41000000.0
+ af = 1.0
+ ef = 1.2
+ kf = 0.0
+ ntnoi = 1.0
* BSIM4 - Layout Dependent Parasitic Model Parameters
+ dmcg = 0.0
+ dmcgt = 0.0
+ dmdg = 0.0
+ xgw = 0.0
+ xgl = 0.0
+ ngcon = 1.0
* Diode DC IV Parameters
* BSIM4 - Diode DC IV parameters
+ diomod = 1.0
+ njs = 1.2928
+ jss = 0.00275
+ jsws = 6.0e-10
+ xtis = 2.0
+ bvs = 11.9
+ xjbvs = 1.0
+ ijthsrev = 0.1
+ ijthsfwd = 0.1
* Diode and FET Capacitance Parameters
+ tpb = 0.0012287
+ tpbsw = 0.0
+ tpbswg = 0.0
+ tcj = 0.000792
+ tcjsw = 1.0e-5
+ tcjswg = 0.0
+ cgdo = 2.49362848e-10
+ cgso = 2.49362848e-10
+ cgbo = 1.0e-14
+ capmod = 2.0
+ xpart = 0.0
+ cgsl = 2.408e-11
+ cgdl = 2.408e-11
+ cf = 1.0e-14
+ clc = 1.0e-7
+ cle = 0.6
+ dlc = 2.241e-9
+ dwc = 4.852e-8
+ vfbcv = -1.0
+ acde = 0.38008
+ moin = 23.81
+ noff = 3.8661
+ voffcv = -0.16994
+ ngate = 1.0e+23
+ lwc = 0.0
+ llc = 0.0
+ lwlc = 0.0
+ wlc = 0.0
+ wwc = 0.0
+ wwlc = 0.0
* BSIM4 - FET and Diode capacitance parameters
+ ckappas = 0.6
+ cjs = 0.0013575861
+ mjs = 0.42197
+ pbs = 0.7477
+ cjsws = 3.62566016e-11
+ mjsws = 0.001
+ pbsws = 0.1
+ cjswgs = 2.01501188e-10
+ mjswgs = 0.8
+ pbswgs = 0.79644
* Stress Parameters
+ saref = 3.0e-6
+ sbref = 3.0e-6
+ wlod = {0+sky130_fd_pr__nfet_01v8_lvt__wlod_diff}
+ kvth0 = {0+sky130_fd_pr__nfet_01v8_lvt__kvth0_diff}
+ lkvth0 = {0+sky130_fd_pr__nfet_01v8_lvt__lkvth0_diff}
+ wkvth0 = {0+sky130_fd_pr__nfet_01v8_lvt__wkvth0_diff}
+ pkvth0 = 0.0
+ llodvth = 0.0
+ wlodvth = 1.0
+ stk2 = 0.0
+ lodk2 = 1.0
+ lodeta0 = 1.0
+ ku0 = {0+sky130_fd_pr__nfet_01v8_lvt__ku0_diff}
+ lku0 = {0+sky130_fd_pr__nfet_01v8_lvt__lku0_diff}
+ wku0 = {0+sky130_fd_pr__nfet_01v8_lvt__wku0_diff}
+ pku0 = 0.0
+ llodku0 = 0.0
+ wlodku0 = 1.0
+ kvsat = {0+sky130_fd_pr__nfet_01v8_lvt__kvsat_diff}
+ steta0 = 0.0
+ tku0 = 0.0
.model sky130_fd_pr__nfet_01v8_lvt__model.1 nmos
* DC IV MOS Parameters
+ lmin = 4e-06 lmax = 8e-06 wmin = 7e-06 wmax = 1.0e-4
+ level = 54.0
+ tnom = 30.0
+ version = 4.5
+ toxm = 4.148e-9
+ xj = 1.5e-7
+ lln = 1.0
+ lwn = 1.0
+ wln = 1.0
+ wwn = 1.0
+ lint = -1.025e-10
+ ll = 0.0
+ lw = 0.0
+ lwl = 0.0
+ wint = 4.852e-8
+ wl = 0.0
+ ww = 0.0
+ wwl = 0.0
+ xl = 0.0
+ xw = 0.0
+ mobmod = 0.0
+ binunit = 2.0
+ dwg = -1.33e-8
+ dwb = -1.08e-8
* BSIM4 - Model Selectors
+ igcmod = 0.0
+ igbmod = 0.0
+ rgatemod = 0.0
+ rbodymod = 1.0
+ trnqsmod = 0.0
+ acnqsmod = 0.0
+ fnoimod = 1.0
+ tnoimod = 1.0
+ permod = 1.0
+ geomod = 0.0
+ rdsmod = 0.0
+ tempmod = 0.0
+ lintnoi = -3.0e-7
+ vfbsdoff = 0.0
+ lambda = 0.0
+ vtl = 0.0
+ lc = 0.0
+ xn = 0.0
+ rnoia = 0.912
+ rnoib = 0.26
+ tnoia = 25000000.0
+ tnoib = 9900000.0
* BSIM4 - Process Parameters
+ epsrox = 3.9
+ toxe = {4.299402e-09+sky130_fd_pr__nfet_01v8_lvt__toxe_slope_spectre*(4.299402e-09*(sky130_fd_pr__nfet_01v8_lvt__toxe_slope/sqrt(l*w*mult)))}
+ dtox = 0.0
+ ndep = 1.7000000000000000e+17
+ nsd = 1.0e+20
+ rshg = 0.1
+ rsh = 1.0
* Threshold Voltage Parameters
+ vth0 = {4.045100657e-01+sky130_fd_pr__nfet_01v8_lvt__vth0_slope_spectre*(sky130_fd_pr__nfet_01v8_lvt__vth0_slope2/sqrt(l*w*mult))} lvth0 = 1.060109905e-07 wvth0 = 9.147135941e-08 pvth0 = -7.317896269e-13
+ k1 = 5.492848205e-01 lk1 = -6.172543808e-07 wk1 = -5.325966398e-07 pk1 = 4.260882301e-12
+ k2 = -5.930836397e-02 lk2 = 2.146700126e-07 wk2 = 1.852275673e-07 pk2 = -1.481858510e-12
+ k3 = 1.65
+ dvt0 = 0.07665
+ dvt1 = 0.1252
+ dvt2 = -0.05637
+ dvt0w = 0.0
+ dvt1w = 5300000.0
+ dvt2w = -0.032
+ w0 = 1.0e-7
+ k3b = 1.6
+ vfb = 0.0
* NEW BSIM4 Parameters for Level 54
+ phin = 0.0
+ lpe0 = 2.3802e-7
+ lpeb = -4.9152e-8
+ vbm = -3.0
+ dvtp0 = 0.0
+ dvtp1 = 0.0
* Mobility Parameters
+ vsat = 7.325311799e+04 lvsat = 7.031130729e-01 wvsat = 6.066796310e-01 pvsat = -4.853561418e-6
+ ua = -1.339809067e-09 lua = 3.083468390e-16 wua = 2.660564193e-16 pua = -2.128505896e-21
+ ub = 2.668117703e-18 lub = -2.406277939e-25 wub = -2.076251841e-25 pub = 1.661044036e-30
+ uc = 6.984153296e-11 luc = 2.483800001e-18 wuc = 2.143141589e-18 puc = -1.714557205e-23
+ rdsw = 103.65
+ prwb = 0.0
+ prwg = 0.0
+ wr = 1.0
+ u0 = 3.125845003e-02 lu0 = 3.191361568e-09 wu0 = 2.753659594e-09 pu0 = -2.202984125e-14
+ a0 = 2.001829856e+00 la0 = -2.947944011e-07 wa0 = -2.543627269e-07 pa0 = 2.034953959e-12
+ keta = 0.0
+ a1 = 0.0
+ a2 = 0.38689047
+ ags = 4.913938252e-01 lags = 9.674787754e-08 wags = 8.347870195e-08 pags = -6.678467287e-13
+ b0 = 0.0
+ b1 = 0.0
* BSIM4 - Mobility Parameters
+ eu = 1.67
+ rdswmin = 0.0
+ rdw = 0.0
+ rdwmin = 0.0
+ rsw = 0.0
+ rswmin = 0.0
* Subthreshold Current Parameters
+ voff = {-1.120495311e-01+sky130_fd_pr__nfet_01v8_lvt__voff_slope_spectre*(sky130_fd_pr__nfet_01v8_lvt__voff_slope/sqrt(l*w*mult))} lvoff = -2.839799875e-08 wvoff = -2.450315329e-08 pvoff = 1.960302495e-13
+ nfactor = {1.254137926e+00+sky130_fd_pr__nfet_01v8_lvt__nfactor_slope_spectre*(sky130_fd_pr__nfet_01v8_lvt__nfactor_slope/sqrt(l*w*mult))} lnfactor = -8.315415186e-07 wnfactor = -7.174938444e-07 pnfactor = 5.740097842e-12
+ up = 0.0
+ ud = 0.0
+ lp = 1.0
+ tvfbsdoff = 0.0
+ tvoff = 0.0
+ cit = 1.0e-5
+ cdsc = 3.8556e-37
+ cdscb = -0.00011484
+ cdscd = 4.7984e-6
+ eta0 = 0.08
+ etab = -0.07
+ dsub = 0.56
* BSIM4 - Sub-threshold parameters
+ voffl = 0.0
+ minv = 0.0
* Rout Parameters
+ pclm = 3.413258877e-01 lpclm = -1.130636074e-06 wpclm = -9.755669500e-07 ppclm = 7.804735592e-12
+ pdiblc1 = 0.39
+ pdiblc2 = 2.875490026e-03 lpdiblc2 = 1.537807385e-08 wpdiblc2 = 1.326893856e-08 ppdiblc2 = -1.061542286e-13
+ pdiblcb = 0.0
+ drout = 3.4946
+ pscbe1 = 450000000.0
+ pscbe2 = 1.0e-8
+ pvag = 0.0
+ delta = 0.01
+ alpha0 = 1.386566658e-04 lalpha0 = -4.344992043e-10 walpha0 = -3.749067215e-10 palpha0 = 2.999330628e-15
+ alpha1 = 0.0
+ beta0 = 1.812552730e+01 lbeta0 = -2.420424426e-06 wbeta0 = -2.088458107e-06 pbeta0 = 1.670809299e-11
* BSIM4 - Rout Parameters
+ fprout = 0.0
+ pdits = 1.4427e-15
+ pditsl = 0.0
+ pditsd = 0.0
* BSIM4 - Gate Induced Drain Leakage Model Parameters
+ agidl = 0.0
+ bgidl = 2300000000.0
+ cgidl = 0.5
+ egidl = 0.8
* BSIM4 - Gate Leakage Current Parameters
+ aigbacc = 1.0
+ bigbacc = 0.0
+ cigbacc = 0.0
+ nigbacc = 1.0
+ aigbinv = 0.35
+ bigbinv = 0.03
+ cigbinv = 0.006
+ eigbinv = 1.1
+ nigbinv = 3.0
+ aigc = 0.43
+ bigc = 0.054
+ cigc = 0.075
+ nigc = 1.0
+ aigsd = 0.43
+ bigsd = 0.054
+ cigsd = 0.075
+ dlcig = 0.0
+ poxedge = 1.0
+ pigcd = 1.0
+ ntox = 1.0
+ toxref = 4.148e-9
* Temperature Effects Parameters
+ kt1 = -2.532210306e-01 lkt1 = -3.351840832e-09 wkt1 = -2.892128788e-09 pkt1 = 2.313762319e-14
+ kt2 = -3.413616713e-02 lkt2 = -2.294721800e-09 wkt2 = -1.979995862e-09 pkt2 = 1.584037280e-14
+ at = 6.177481998e+05 lat = -2.277403956e+00 wat = -1.965053197e+00 pat = 1.572082841e-5
+ ute = -9.496457727e-01 lute = -1.024460070e-06 wute = -8.839532089e-07 pute = 7.071806882e-12
+ ua1 = 2.421249855e-09 lua1 = 2.088454672e-15 wua1 = 1.802018706e-15 pua1 = -1.441651906e-20
+ ub1 = -1.551862099e-18 lub1 = -7.131685954e-24 wub1 = -6.153560174e-24 pub1 = 4.922974287e-29
+ uc1 = -1.089195526e-11 luc1 = -6.665006577e-17 wuc1 = -5.750886858e-17 puc1 = 4.600827380e-22
+ kt1l = 0.0
+ prt = 0.0
* BSIM4 - High Speed RF Model Parameters
+ xrcrg1 = 12.0
+ xrcrg2 = 1.0
+ rbpb = 50.0
+ rbpd = 50.0
+ rbps = 50.0
+ rbdb = 50.0
+ rbsb = 50.0
+ gbmin = 1.0e-12
* BSIM4 - Flicker and Thermal Noise Parameters
+ noia = 9.0e+41
+ noib = 1.0e+27
+ noic = 800000000000.0
+ em = 41000000.0
+ af = 1.0
+ ef = 1.2
+ kf = 0.0
+ ntnoi = 1.0
* BSIM4 - Layout Dependent Parasitic Model Parameters
+ dmcg = 0.0
+ dmcgt = 0.0
+ dmdg = 0.0
+ xgw = 0.0
+ xgl = 0.0
+ ngcon = 1.0
* Diode DC IV Parameters
* BSIM4 - Diode DC IV parameters
+ diomod = 1.0
+ njs = 1.2928
+ jss = 0.00275
+ jsws = 6.0e-10
+ xtis = 2.0
+ bvs = 11.9
+ xjbvs = 1.0
+ ijthsrev = 0.1
+ ijthsfwd = 0.1
* Diode and FET Capacitance Parameters
+ tpb = 0.0012287
+ tpbsw = 0.0
+ tpbswg = 0.0
+ tcj = 0.000792
+ tcjsw = 1.0e-5
+ tcjswg = 0.0
+ cgdo = 2.49362848e-10
+ cgso = 2.49362848e-10
+ cgbo = 1.0e-14
+ capmod = 2.0
+ xpart = 0.0
+ cgsl = 2.408e-11
+ cgdl = 2.408e-11
+ cf = 1.0e-14
+ clc = 1.0e-7
+ cle = 0.6
+ dlc = 2.241e-9
+ dwc = 4.852e-8
+ vfbcv = -1.0
+ acde = 0.38008
+ moin = 23.81
+ noff = 3.8661
+ voffcv = -0.16994
+ ngate = 1.0e+23
+ lwc = 0.0
+ llc = 0.0
+ lwlc = 0.0
+ wlc = 0.0
+ wwc = 0.0
+ wwlc = 0.0
* BSIM4 - FET and Diode capacitance parameters
+ ckappas = 0.6
+ cjs = 0.0013575861
+ mjs = 0.42197
+ pbs = 0.7477
+ cjsws = 3.62566016e-11
+ mjsws = 0.001
+ pbsws = 0.1
+ cjswgs = 2.01501188e-10
+ mjswgs = 0.8
+ pbswgs = 0.79644
* Stress Parameters
+ saref = 3.0e-6
+ sbref = 3.0e-6
+ wlod = {0+sky130_fd_pr__nfet_01v8_lvt__wlod_diff}
+ kvth0 = {0+sky130_fd_pr__nfet_01v8_lvt__kvth0_diff}
+ lkvth0 = {0+sky130_fd_pr__nfet_01v8_lvt__lkvth0_diff}
+ wkvth0 = {0+sky130_fd_pr__nfet_01v8_lvt__wkvth0_diff}
+ pkvth0 = 0.0
+ llodvth = 0.0
+ wlodvth = 1.0
+ stk2 = 0.0
+ lodk2 = 1.0
+ lodeta0 = 1.0
+ ku0 = {0+sky130_fd_pr__nfet_01v8_lvt__ku0_diff}
+ lku0 = {0+sky130_fd_pr__nfet_01v8_lvt__lku0_diff}
+ wku0 = {0+sky130_fd_pr__nfet_01v8_lvt__wku0_diff}
+ pku0 = 0.0
+ llodku0 = 0.0
+ wlodku0 = 1.0
+ kvsat = {0+sky130_fd_pr__nfet_01v8_lvt__kvsat_diff}
+ steta0 = 0.0
+ tku0 = 0.0
.model sky130_fd_pr__nfet_01v8_lvt__model.2 nmos
* DC IV MOS Parameters
+ lmin = 2e-06 lmax = 4e-06 wmin = 7e-06 wmax = 1.0e-4
+ level = 54.0
+ tnom = 30.0
+ version = 4.5
+ toxm = 4.148e-9
+ xj = 1.5e-7
+ lln = 1.0
+ lwn = 1.0
+ wln = 1.0
+ wwn = 1.0
+ lint = -1.025e-10
+ ll = 0.0
+ lw = 0.0
+ lwl = 0.0
+ wint = 4.852e-8
+ wl = 0.0
+ ww = 0.0
+ wwl = 0.0
+ xl = 0.0
+ xw = 0.0
+ mobmod = 0.0
+ binunit = 2.0
+ dwg = -1.33e-8
+ dwb = -1.08e-8
* BSIM4 - Model Selectors
+ igcmod = 0.0
+ igbmod = 0.0
+ rgatemod = 0.0
+ rbodymod = 1.0
+ trnqsmod = 0.0
+ acnqsmod = 0.0
+ fnoimod = 1.0
+ tnoimod = 1.0
+ permod = 1.0
+ geomod = 0.0
+ rdsmod = 0.0
+ tempmod = 0.0
+ lintnoi = -3.0e-7
+ vfbsdoff = 0.0
+ lambda = 0.0
+ vtl = 0.0
+ lc = 0.0
+ xn = 0.0
+ rnoia = 0.912
+ rnoib = 0.26
+ tnoia = 25000000.0
+ tnoib = 9900000.0
* BSIM4 - Process Parameters
+ epsrox = 3.9
+ toxe = {4.299402e-09+sky130_fd_pr__nfet_01v8_lvt__toxe_slope_spectre*(4.299402e-09*(sky130_fd_pr__nfet_01v8_lvt__toxe_slope/sqrt(l*w*mult)))}
+ dtox = 0.0
+ ndep = 1.7000000000000000e+17
+ nsd = 1.0e+20
+ rshg = 0.1
+ rsh = 1.0
* Threshold Voltage Parameters
+ vth0 = {4.300877157e-01+sky130_fd_pr__nfet_01v8_lvt__vth0_slope_spectre*(sky130_fd_pr__nfet_01v8_lvt__vth0_slope/sqrt(l*w*mult))} lvth0 = 3.695147372e-09 wvth0 = -1.829427188e-07 pvth0 = 3.659229409e-13
+ k1 = 3.595646373e-01 lk1 = 1.416652445e-07 wk1 = 1.065193280e-06 pk1 = -2.130604924e-12
+ k2 = 6.261697871e-03 lk2 = -4.762367667e-08 wk2 = -3.704551346e-07 pk2 = 7.409862125e-13
+ k3 = 1.65
+ dvt0 = 0.07665
+ dvt1 = 0.1252
+ dvt2 = -0.05637
+ dvt0w = 0.0
+ dvt1w = 5300000.0
+ dvt2w = -0.032
+ w0 = 1.0e-7
+ k3b = 1.6
+ vfb = 0.0
* NEW BSIM4 Parameters for Level 54
+ phin = 0.0
+ lpe0 = 2.3802e-7
+ lpeb = -4.9152e-8
+ vbm = -3.0
+ dvtp0 = 0.0
+ dvtp1 = 0.0
* Mobility Parameters
+ vsat = 4.525746180e+05 lvsat = -8.142506882e-01 wvsat = -1.213359262e+00 pvsat = 2.426967263e-6
+ ua = -1.301518032e-09 lua = 1.551748471e-16 wua = -5.321128386e-16 pua = 1.064334760e-21
+ ub = 2.590971934e-18 lub = 6.797109765e-26 wub = 4.152503682e-25 pub = -8.305858627e-31
+ uc = 6.797964781e-11 luc = 9.931722285e-18 wuc = -4.286283177e-18 puc = 8.573445043e-24
+ rdsw = 103.65
+ prwb = 0.0
+ prwg = 0.0
+ wr = 1.0
+ u0 = 3.035081427e-02 lu0 = 6.822090648e-09 wu0 = -5.507319187e-09 pu0 = 1.101576738e-14
+ a0 = 1.913255540e+00 la0 = 5.952102035e-08 wa0 = 5.087254537e-07 pa0 = -1.017555196e-12
+ keta = 1.845489143e-01 lketa = -7.382334898e-7
+ a1 = 0.0
+ a2 = 0.38689047
+ ags = -3.759922666e-01 lags = 3.566470059e-06 wags = -1.669574039e-07 pags = 3.339490341e-13
+ b0 = 0.0
+ b1 = 0.0
* BSIM4 - Mobility Parameters
+ eu = 1.67
+ rdswmin = 0.0
+ rdw = 0.0
+ rdwmin = 0.0
+ rsw = 0.0
+ rswmin = 0.0
* Subthreshold Current Parameters
+ voff = {-1.224011073e-01+sky130_fd_pr__nfet_01v8_lvt__voff_slope_spectre*(sky130_fd_pr__nfet_01v8_lvt__voff_slope/sqrt(l*w*mult))} lvoff = 1.301042801e-08 wvoff = 4.900630658e-08 pvoff = -9.802265944e-14
+ nfactor = {6.982521331e-01+sky130_fd_pr__nfet_01v8_lvt__nfactor_slope_spectre*(sky130_fd_pr__nfet_01v8_lvt__nfactor_slope/sqrt(l*w*mult))} lnfactor = 1.392115611e-06 wnfactor = 1.434987689e-06 pnfactor = -2.870269550e-12
+ up = 0.0
+ ud = 0.0
+ lp = 1.0
+ tvfbsdoff = 0.0
+ tvoff = 0.0
+ cit = 1.0e-5
+ cdsc = 3.8556e-37
+ cdscb = -0.00011484
+ cdscd = 4.7984e-6
+ eta0 = 1.595081488e-01 leta0 = -3.180488942e-7
+ etab = -1.395071238e-01 letab = 2.780427440e-7
+ dsub = 8.370548752e-01 ldsub = -1.108276297e-6
* BSIM4 - Sub-threshold parameters
+ voffl = 0.0
+ minv = 0.0
* Rout Parameters
+ pclm = -1.127548607e-01 lpclm = 6.857800067e-07 wpclm = 1.951133900e-06 ppclm = -3.902667783e-12
+ pdiblc1 = 0.39
+ pdiblc2 = 4.747920834e-03 lpdiblc2 = 7.887966766e-09 wpdiblc2 = -2.653787713e-08 ppdiblc2 = 5.308119452e-14
+ pdiblcb = 0.0
+ drout = 3.4946
+ pscbe1 = 450000000.0
+ pscbe2 = 1.0e-8
+ pvag = 0.0
+ delta = 0.01
+ alpha0 = -6.571458063e-05 lalpha0 = 3.830276776e-10 walpha0 = 7.498134429e-10 palpha0 = -1.499780598e-15
+ alpha1 = 0.0
+ beta0 = 1.374391235e+01 lbeta0 = 1.510693360e-05 wbeta0 = 4.176916215e-06 pbeta0 = -8.354688698e-12
* BSIM4 - Rout Parameters
+ fprout = 0.0
+ pdits = 1.4427e-15
+ pditsl = 0.0
+ pditsd = 0.0
* BSIM4 - Gate Induced Drain Leakage Model Parameters
+ agidl = 0.0
+ bgidl = 2300000000.0
+ cgidl = 0.5
+ egidl = 0.8
* BSIM4 - Gate Leakage Current Parameters
+ aigbacc = 1.0
+ bigbacc = 0.0
+ cigbacc = 0.0
+ nigbacc = 1.0
+ aigbinv = 0.35
+ bigbinv = 0.03
+ cigbinv = 0.006
+ eigbinv = 1.1
+ nigbinv = 3.0
+ aigc = 0.43
+ bigc = 0.054
+ cigc = 0.075
+ nigc = 1.0
+ aigsd = 0.43
+ bigsd = 0.054
+ cigsd = 0.075
+ dlcig = 0.0
+ poxedge = 1.0
+ pigcd = 1.0
+ ntox = 1.0
+ toxref = 4.148e-9
* Temperature Effects Parameters
+ kt1 = -2.544879398e-01 lkt1 = 1.716055399e-09 wkt1 = 5.784257575e-09 pkt1 = -1.156970092e-14
+ kt2 = -3.976515447e-02 lkt2 = 2.022238152e-08 wkt2 = 3.959991724e-09 pkt2 = -7.920795247e-15
+ at = 4.547447476e+04 lat = 1.180826071e-02 wat = 3.930106394e+00 pat = -7.861018459e-6
+ ute = -1.242299076e+00 lute = 1.462131370e-07 wute = 1.767906418e-06 pute = -3.536175256e-12
+ ua1 = 2.634541885e-09 lua1 = 1.235242830e-15 wua1 = -3.604037412e-15 pua1 = 7.208813652e-21
+ ub1 = -2.902540144e-18 lub1 = -1.728696886e-24 wub1 = 1.230712035e-23 pub1 = -2.461676366e-29
+ uc1 = -2.035849816e-11 luc1 = -2.878195352e-17 wuc1 = 1.150177372e-16 puc1 = -2.300590530e-22
+ kt1l = 0.0
+ prt = 0.0
* BSIM4 - High Speed RF Model Parameters
+ xrcrg1 = 12.0
+ xrcrg2 = 1.0
+ rbpb = 50.0
+ rbpd = 50.0
+ rbps = 50.0
+ rbdb = 50.0
+ rbsb = 50.0
+ gbmin = 1.0e-12
* BSIM4 - Flicker and Thermal Noise Parameters
+ noia = 9.0e+41
+ noib = 1.0e+27
+ noic = 800000000000.0
+ em = 41000000.0
+ af = 1.0
+ ef = 1.2
+ kf = 0.0
+ ntnoi = 1.0
* BSIM4 - Layout Dependent Parasitic Model Parameters
+ dmcg = 0.0
+ dmcgt = 0.0
+ dmdg = 0.0
+ xgw = 0.0
+ xgl = 0.0
+ ngcon = 1.0
* Diode DC IV Parameters
* BSIM4 - Diode DC IV parameters
+ diomod = 1.0
+ njs = 1.2928
+ jss = 0.00275
+ jsws = 6.0e-10
+ xtis = 2.0
+ bvs = 11.9
+ xjbvs = 1.0
+ ijthsrev = 0.1
+ ijthsfwd = 0.1
* Diode and FET Capacitance Parameters
+ tpb = 0.0012287
+ tpbsw = 0.0
+ tpbswg = 0.0
+ tcj = 0.000792
+ tcjsw = 1.0e-5
+ tcjswg = 0.0
+ cgdo = 2.49362848e-10
+ cgso = 2.49362848e-10
+ cgbo = 1.0e-14
+ capmod = 2.0
+ xpart = 0.0
+ cgsl = 2.408e-11
+ cgdl = 2.408e-11
+ cf = 1.0e-14
+ clc = 1.0e-7
+ cle = 0.6
+ dlc = 2.241e-9
+ dwc = 4.852e-8
+ vfbcv = -1.0
+ acde = 0.38008
+ moin = 23.81
+ noff = 3.8661
+ voffcv = -0.16994
+ ngate = 1.0e+23
+ lwc = 0.0
+ llc = 0.0
+ lwlc = 0.0
+ wlc = 0.0
+ wwc = 0.0
+ wwlc = 0.0
* BSIM4 - FET and Diode capacitance parameters
+ ckappas = 0.6
+ cjs = 0.0013575861
+ mjs = 0.42197
+ pbs = 0.7477
+ cjsws = 3.62566016e-11
+ mjsws = 0.001
+ pbsws = 0.1
+ cjswgs = 2.01501188e-10
+ mjswgs = 0.8
+ pbswgs = 0.79644
* Stress Parameters
+ saref = 3.0e-6
+ sbref = 3.0e-6
+ wlod = {0+sky130_fd_pr__nfet_01v8_lvt__wlod_diff}
+ kvth0 = {0+sky130_fd_pr__nfet_01v8_lvt__kvth0_diff}
+ lkvth0 = {0+sky130_fd_pr__nfet_01v8_lvt__lkvth0_diff}
+ wkvth0 = {0+sky130_fd_pr__nfet_01v8_lvt__wkvth0_diff}
+ pkvth0 = 0.0
+ llodvth = 0.0
+ wlodvth = 1.0
+ stk2 = 0.0
+ lodk2 = 1.0
+ lodeta0 = 1.0
+ ku0 = {0+sky130_fd_pr__nfet_01v8_lvt__ku0_diff}
+ lku0 = {0+sky130_fd_pr__nfet_01v8_lvt__lku0_diff}
+ wku0 = {0+sky130_fd_pr__nfet_01v8_lvt__wku0_diff}
+ pku0 = 0.0
+ llodku0 = 0.0
+ wlodku0 = 1.0
+ kvsat = {0+sky130_fd_pr__nfet_01v8_lvt__kvsat_diff}
+ steta0 = 0.0
+ tku0 = 0.0
.model sky130_fd_pr__nfet_01v8_lvt__model.3 nmos
* DC IV MOS Parameters
+ lmin = 1e-06 lmax = 2e-06 wmin = 7e-06 wmax = 1.0e-4
+ level = 54.0
+ tnom = 30.0
+ version = 4.5
+ toxm = 4.148e-9
+ xj = 1.5e-7
+ lln = 1.0
+ lwn = 1.0
+ wln = 1.0
+ wwn = 1.0
+ lint = -1.025e-10
+ ll = 0.0
+ lw = 0.0
+ lwl = 0.0
+ wint = 4.852e-8
+ wl = 0.0
+ ww = 0.0
+ wwl = 0.0
+ xl = 0.0
+ xw = 0.0
+ mobmod = 0.0
+ binunit = 2.0
+ dwg = -1.33e-8
+ dwb = -1.08e-8
* BSIM4 - Model Selectors
+ igcmod = 0.0
+ igbmod = 0.0
+ rgatemod = 0.0
+ rbodymod = 1.0
+ trnqsmod = 0.0
+ acnqsmod = 0.0
+ fnoimod = 1.0
+ tnoimod = 1.0
+ permod = 1.0
+ geomod = 0.0
+ rdsmod = 0.0
+ tempmod = 0.0
+ lintnoi = -3.0e-7
+ vfbsdoff = 0.0
+ lambda = 0.0
+ vtl = 0.0
+ lc = 0.0
+ xn = 0.0
+ rnoia = 0.912
+ rnoib = 0.26
+ tnoia = 25000000.0
+ tnoib = 9900000.0
* BSIM4 - Process Parameters
+ epsrox = 3.9
+ toxe = {4.299402e-09+sky130_fd_pr__nfet_01v8_lvt__toxe_slope_spectre*(4.299402e-09*(sky130_fd_pr__nfet_01v8_lvt__toxe_slope/sqrt(l*w*mult)))}
+ dtox = 0.0
+ ndep = 1.7000000000000000e+17
+ nsd = 1.0e+20
+ rshg = 0.1
+ rsh = 1.0
* Threshold Voltage Parameters
+ vth0 = {4.291617716e-01+sky130_fd_pr__nfet_01v8_lvt__vth0_slope_spectre*(sky130_fd_pr__nfet_01v8_lvt__vth0_slope/sqrt(l*w*mult))} lvth0 = 5.547225364e-9
+ k1 = 4.289797110e-01 lk1 = 2.820867209e-9
+ k2 = -1.361539404e-02 lk2 = -7.865418038e-9
+ k3 = 1.65
+ dvt0 = 0.07665
+ dvt1 = 0.1252
+ dvt2 = -0.05637
+ dvt0w = 0.0
+ dvt1w = 5300000.0
+ dvt2w = -0.032
+ w0 = 1.0e-7
+ k3b = 1.6
+ vfb = 0.0
* NEW BSIM4 Parameters for Level 54
+ phin = 0.0
+ lpe0 = 2.3802e-7
+ lpeb = -4.9152e-8
+ vbm = -3.0
+ dvtp0 = 0.0
+ dvtp1 = 0.0
* Mobility Parameters
+ vsat = 1.853047423e+04 lvsat = 5.392657846e-2
+ ua = -9.429601312e-10 lua = -5.620144581e-16
+ ub = 2.563565418e-18 lub = 1.227897488e-25
+ uc = 5.933521056e-11 luc = 2.722236888e-17
+ rdsw = 103.65
+ prwb = 0.0
+ prwg = 0.0
+ wr = 1.0
+ u0 = 3.802997486e-02 lu0 = -8.537804747e-9
+ a0 = 2.198224308e+00 la0 = -5.104749335e-7
+ keta = -1.439316791e-01 lketa = -8.120496456e-8
+ a1 = 0.0
+ a2 = 0.38689047
+ ags = 7.351202806e-01 lags = 1.344017186e-6
+ b0 = 0.0
+ b1 = 0.0
* BSIM4 - Mobility Parameters
+ eu = 1.67
+ rdswmin = 0.0
+ rdw = 0.0
+ rdwmin = 0.0
+ rsw = 0.0
+ rswmin = 0.0
* Subthreshold Current Parameters
+ voff = {-1.170973161e-01+sky130_fd_pr__nfet_01v8_lvt__voff_slope_spectre*(sky130_fd_pr__nfet_01v8_lvt__voff_slope/sqrt(l*w*mult))} lvoff = 2.401758364e-9
+ nfactor = {1.002352380e+00+sky130_fd_pr__nfet_01v8_lvt__nfactor_slope_spectre*(sky130_fd_pr__nfet_01v8_lvt__nfactor_slope/sqrt(l*w*mult))} lnfactor = 7.838527771e-7
+ up = 0.0
+ ud = 0.0
+ lp = 1.0
+ tvfbsdoff = 0.0
+ tvoff = 0.0
+ cit = 1.500102500e-05 lcit = -1.000307521e-11
+ cdsc = 3.8556e-37
+ cdscb = -0.00011484
+ cdscd = 4.7984e-6
+ eta0 = 5.934791593e-04 leta0 = -1.869774818e-10 weta0 = 8.271806126e-25
+ etab = -5.426287371e-04 letab = 8.526621309e-11 wetab = 8.271806126e-25
+ dsub = -5.984348308e-02 ldsub = 6.857042836e-7
* BSIM4 - Sub-threshold parameters
+ voffl = 0.0
+ minv = 0.0
* Rout Parameters
+ pclm = 2.292098176e-01 lpclm = 1.780547387e-9
+ pdiblc1 = 0.39
+ pdiblc2 = 6.973647912e-03 lpdiblc2 = 3.436056335e-9
+ pdiblcb = 0.0
+ drout = 3.4946
+ pscbe1 = 450000000.0
+ pscbe2 = 1.0e-8
+ pvag = 0.0
+ delta = 0.01
+ alpha0 = 1.881059773e-04 lalpha0 = -1.246654715e-10
+ alpha1 = 0.0
+ beta0 = 2.119447407e+01 lbeta0 = 2.042828019e-7
* BSIM4 - Rout Parameters
+ fprout = 0.0
+ pdits = 1.4427e-15
+ pditsl = 0.0
+ pditsd = 0.0
* BSIM4 - Gate Induced Drain Leakage Model Parameters
+ agidl = 0.0
+ bgidl = 2300000000.0
+ cgidl = 0.5
+ egidl = 0.8
* BSIM4 - Gate Leakage Current Parameters
+ aigbacc = 1.0
+ bigbacc = 0.0
+ cigbacc = 0.0
+ nigbacc = 1.0
+ aigbinv = 0.35
+ bigbinv = 0.03
+ cigbinv = 0.006
+ eigbinv = 1.1
+ nigbinv = 3.0
+ aigc = 0.43
+ bigc = 0.054
+ cigc = 0.075
+ nigc = 1.0
+ aigsd = 0.43
+ bigsd = 0.054
+ cigsd = 0.075
+ dlcig = 0.0
+ poxedge = 1.0
+ pigcd = 1.0
+ ntox = 1.0
+ toxref = 4.148e-9
* Temperature Effects Parameters
+ kt1 = -2.506093809e-01 lkt1 = -6.041857427e-9
+ kt2 = -4.635542289e-02 lkt2 = 3.340426936e-8
+ at = 3.048971878e+04 lat = 4.178084454e-2
+ ute = -1.328232595e+00 lute = 3.180977917e-7
+ ua1 = 3.274504592e-09 lua1 = -4.481377694e-17
+ ub1 = -3.911829725e-18 lub1 = 2.900891811e-25
+ uc1 = 1.241766698e-11 luc1 = -9.434100292e-17
+ kt1l = 0.0
+ prt = 0.0
* BSIM4 - High Speed RF Model Parameters
+ xrcrg1 = 12.0
+ xrcrg2 = 1.0
+ rbpb = 50.0
+ rbpd = 50.0
+ rbps = 50.0
+ rbdb = 50.0
+ rbsb = 50.0
+ gbmin = 1.0e-12
* BSIM4 - Flicker and Thermal Noise Parameters
+ noia = 9.0e+41
+ noib = 1.0e+27
+ noic = 800000000000.0
+ em = 41000000.0
+ af = 1.0
+ ef = 1.2
+ kf = 0.0
+ ntnoi = 1.0
* BSIM4 - Layout Dependent Parasitic Model Parameters
+ dmcg = 0.0
+ dmcgt = 0.0
+ dmdg = 0.0
+ xgw = 0.0
+ xgl = 0.0
+ ngcon = 1.0
* Diode DC IV Parameters
* BSIM4 - Diode DC IV parameters
+ diomod = 1.0
+ njs = 1.2928
+ jss = 0.00275
+ jsws = 6.0e-10
+ xtis = 2.0
+ bvs = 11.9
+ xjbvs = 1.0
+ ijthsrev = 0.1
+ ijthsfwd = 0.1
* Diode and FET Capacitance Parameters
+ tpb = 0.0012287
+ tpbsw = 0.0
+ tpbswg = 0.0
+ tcj = 0.000792
+ tcjsw = 1.0e-5
+ tcjswg = 0.0
+ cgdo = 2.49362848e-10
+ cgso = 2.49362848e-10
+ cgbo = 1.0e-14
+ capmod = 2.0
+ xpart = 0.0
+ cgsl = 2.408e-11
+ cgdl = 2.408e-11
+ cf = 1.0e-14
+ clc = 1.0e-7
+ cle = 0.6
+ dlc = 2.241e-9
+ dwc = 4.852e-8
+ vfbcv = -1.0
+ acde = 0.38008
+ moin = 23.81
+ noff = 3.8661
+ voffcv = -0.16994
+ ngate = 1.0e+23
+ lwc = 0.0
+ llc = 0.0
+ lwlc = 0.0
+ wlc = 0.0
+ wwc = 0.0
+ wwlc = 0.0
* BSIM4 - FET and Diode capacitance parameters
+ ckappas = 0.6
+ cjs = 0.0013575861
+ mjs = 0.42197
+ pbs = 0.7477
+ cjsws = 3.62566016e-11
+ mjsws = 0.001
+ pbsws = 0.1
+ cjswgs = 2.01501188e-10
+ mjswgs = 0.8
+ pbswgs = 0.79644
* Stress Parameters
+ saref = 2.74e-6
+ sbref = 2.74e-6
+ wlod = {0+sky130_fd_pr__nfet_01v8_lvt__wlod_diff}
+ kvth0 = {0+sky130_fd_pr__nfet_01v8_lvt__kvth0_diff}
+ lkvth0 = {0+sky130_fd_pr__nfet_01v8_lvt__lkvth0_diff}
+ wkvth0 = {0+sky130_fd_pr__nfet_01v8_lvt__wkvth0_diff}
+ pkvth0 = 0.0
+ llodvth = 0.0
+ wlodvth = 1.0
+ stk2 = 0.0
+ lodk2 = 1.0
+ lodeta0 = 1.0
+ ku0 = {0+sky130_fd_pr__nfet_01v8_lvt__ku0_diff}
+ lku0 = {0+sky130_fd_pr__nfet_01v8_lvt__lku0_diff}
+ wku0 = {0+sky130_fd_pr__nfet_01v8_lvt__wku0_diff}
+ pku0 = 0.0
+ llodku0 = 0.0
+ wlodku0 = 1.0
+ kvsat = {0+sky130_fd_pr__nfet_01v8_lvt__kvsat_diff}
+ steta0 = 0.0
+ tku0 = 0.0
.model sky130_fd_pr__nfet_01v8_lvt__model.4 nmos
* DC IV MOS Parameters
+ lmin = 5e-07 lmax = 1e-06 wmin = 7e-06 wmax = 1.0e-4
+ level = 54.0
+ tnom = 30.0
+ version = 4.5
+ toxm = 4.148e-9
+ xj = 1.5e-7
+ lln = 1.0
+ lwn = 1.0
+ wln = 1.0
+ wwn = 1.0
+ lint = -1.025e-10
+ ll = 0.0
+ lw = 0.0
+ lwl = 0.0
+ wint = 4.852e-8
+ wl = 0.0
+ ww = 0.0
+ wwl = 0.0
+ xl = 0.0
+ xw = 0.0
+ mobmod = 0.0
+ binunit = 2.0
+ dwg = -1.33e-8
+ dwb = -1.08e-8
* BSIM4 - Model Selectors
+ igcmod = 0.0
+ igbmod = 0.0
+ rgatemod = 0.0
+ rbodymod = 1.0
+ trnqsmod = 0.0
+ acnqsmod = 0.0
+ fnoimod = 1.0
+ tnoimod = 1.0
+ permod = 1.0
+ geomod = 0.0
+ rdsmod = 0.0
+ tempmod = 0.0
+ lintnoi = -3.0e-7
+ vfbsdoff = 0.0
+ lambda = 0.0
+ vtl = 0.0
+ lc = 0.0
+ xn = 0.0
+ rnoia = 0.912
+ rnoib = 0.26
+ tnoia = 25000000.0
+ tnoib = 9900000.0
* BSIM4 - Process Parameters
+ epsrox = 3.9
+ toxe = {4.299402e-09+sky130_fd_pr__nfet_01v8_lvt__toxe_slope_spectre*(4.299402e-09*(sky130_fd_pr__nfet_01v8_lvt__toxe_slope/sqrt(l*w*mult)))}
+ dtox = 0.0
+ ndep = 1.7000000000000000e+17
+ nsd = 1.0e+20
+ rshg = 0.1
+ rsh = 1.0
* Threshold Voltage Parameters
+ vth0 = {4.405433116e-01+sky130_fd_pr__nfet_01v8_lvt__vth0_slope_spectre*(sky130_fd_pr__nfet_01v8_lvt__vth0_slope/sqrt(l*w*mult))} lvth0 = -5.836647822e-9
+ k1 = 4.339008610e-01 lk1 = -2.101291677e-9
+ k2 = -1.525532726e-02 lk2 = -6.225148636e-9
+ k3 = 1.65
+ dvt0 = 0.07665
+ dvt1 = 0.1252
+ dvt2 = -0.05637
+ dvt0w = 0.0
+ dvt1w = 5300000.0
+ dvt2w = -0.032
+ w0 = 1.0e-7
+ k3b = 1.6
+ vfb = 0.0
* NEW BSIM4 Parameters for Level 54
+ phin = 0.0
+ lpe0 = 2.3802e-7
+ lpeb = -4.9152e-8
+ vbm = -3.0
+ dvtp0 = 0.0
+ dvtp1 = 0.0