* Copyright 2020 The SkyWater PDK Authors
*
* Licensed under the Apache License, Version 2.0 (the "License");
* you may not use this file except in compliance with the License.
* You may obtain a copy of the License at
*
*     https://www.apache.org/licenses/LICENSE-2.0
*
* Unless required by applicable law or agreed to in writing, software
* distributed under the License is distributed on an "AS IS" BASIS,
* WITHOUT WARRANTIES OR CONDITIONS OF ANY KIND, either express or implied.
* See the License for the specific language governing permissions and
* limitations under the License.

* SKY130 Spice File.
.param sky130_fd_pr__nfet_01v8_lvt__toxe_slope_spectre = 0.0
.param sky130_fd_pr__nfet_01v8_lvt__vth0_slope_spectre = 0.0
.param sky130_fd_pr__nfet_01v8_lvt__voff_slope_spectre = 0.0
.param sky130_fd_pr__nfet_01v8_lvt__nfactor_slope_spectre = 0.0
* statistics {
*   process {
*   }
*   mismatch {
*     vary sky130_fd_pr__nfet_01v8_lvt__toxe_slope_spectre dist=gauss std = 1.0
*     vary sky130_fd_pr__nfet_01v8_lvt__vth0_slope_spectre dist=gauss std = 1.0
*     vary sky130_fd_pr__nfet_01v8_lvt__voff_slope_spectre dist=gauss std = 1.0
*     vary sky130_fd_pr__nfet_01v8_lvt__nfactor_slope_spectre dist=gauss std = 1.0
*   }
* }
.subckt  sky130_fd_pr__nfet_01v8_lvt d g s b
+ 
.param  l = 1 w = 1 ad = 0 as = 0 pd = 0 ps = 0 nrd = 0 nrs = 0 sa = 0 sb = 0 sd = 0 mult = 1 nf = 1.0
msky130_fd_pr__nfet_01v8_lvt d g s b sky130_fd_pr__nfet_01v8_lvt__model l = {l} w = {w} ad = {ad} as = {as} pd = {pd} ps = {ps} nrd = {nrd} nrs = {nrs} sa = {sa} sb = {sb} sd = {sd} nf = {nf}
.model sky130_fd_pr__nfet_01v8_lvt__model.0 nmos
* DC IV MOS Parameters
+ lmin = 8e-06 lmax = 1.0e-04 wmin = 7e-06 wmax = 1.0e-4
+ level = 54.0
+ tnom = 30.0
+ version = 4.5
+ toxm = 4.148e-9
+ xj = 1.5e-7
+ lln = 1.0
+ lwn = 1.0
+ wln = 1.0
+ wwn = 1.0
+ lint = 2.41525e-8
+ ll = 0.0
+ lw = 0.0
+ lwl = 0.0
+ wint = 3.48e-9
+ wl = 0.0
+ ww = 0.0
+ wwl = 0.0
+ xl = 0.0
+ xw = 0.0
+ mobmod = 0.0
+ binunit = 2.0
+ dwg = -1.33e-8
+ dwb = -1.08e-8
* BSIM4 - Model Selectors
+ igcmod = 0.0
+ igbmod = 0.0
+ rgatemod = 0.0
+ rbodymod = 1.0
+ trnqsmod = 0.0
+ acnqsmod = 0.0
+ fnoimod = 1.0
+ tnoimod = 1.0
+ permod = 1.0
+ geomod = 0.0
+ rdsmod = 0.0
+ tempmod = 0.0
+ lintnoi = -3.0e-7
+ vfbsdoff = 0.0
+ lambda = 0.0
+ vtl = 0.0
+ lc = 0.0
+ xn = 0.0
+ rnoia = 0.912
+ rnoib = 0.26
+ tnoia = 25000000.0
+ tnoib = 9900000.0
* BSIM4 - Process Parameters
+ epsrox = 3.9
+ toxe = {3.996598e-09+sky130_fd_pr__nfet_01v8_lvt__toxe_slope_spectre*(3.996598e-09*(sky130_fd_pr__nfet_01v8_lvt__toxe_slope/sqrt(l*w*mult)))}
+ dtox = 0.0
+ ndep = 1.7000000000000000e+17
+ nsd = 1.0e+20
+ rshg = 0.1
+ rsh = 1.0
* Threshold Voltage Parameters
+ vth0 = {0.417702+sky130_fd_pr__nfet_01v8_lvt__vth0_slope_spectre*(sky130_fd_pr__nfet_01v8_lvt__vth0_slope/sqrt(l*w*mult))}
+ k1 = 0.47213
+ k2 = -0.0340947
+ k3 = 1.65
+ dvt0 = 0.07665
+ dvt1 = 0.1252
+ dvt2 = -0.05637
+ dvt0w = 0.0
+ dvt1w = 5300000.0
+ dvt2w = -0.032
+ w0 = 1.0e-7
+ k3b = 1.6
+ vfb = 0.0
* NEW BSIM4 Parameters for Level 54
+ phin = 0.0
+ lpe0 = 2.3802e-7
+ lpeb = -4.9152e-8
+ vbm = -3.0
+ dvtp0 = 0.0
+ dvtp1 = 0.0
* Mobility Parameters
+ vsat = 161140.0
+ ua = -1.3015598e-9
+ ub = 2.68715e-18
+ uc = 7.0152e-11
+ rdsw = 103.65
+ prwb = 0.0
+ prwg = 0.0
+ wr = 1.0
+ u0 = 0.0321123
+ a0 = 1.95580301
+ keta = 0.0
+ a1 = 0.0
+ a2 = 0.38689047
+ ags = 0.554525
+ b0 = 0.0
+ b1 = 0.0
* BSIM4 - Mobility Parameters
+ eu = 1.67
+ rdswmin = 0.0
+ rdw = 0.0
+ rdwmin = 0.0
+ rsw = 0.0
+ rswmin = 0.0
* Subthreshold Current Parameters
+ voff = {-0.11559919+sky130_fd_pr__nfet_01v8_lvt__voff_slope_spectre*(sky130_fd_pr__nfet_01v8_lvt__voff_slope/sqrt(l*w*mult))}
+ nfactor = {1.0383479+sky130_fd_pr__nfet_01v8_lvt__nfactor_slope_spectre*(sky130_fd_pr__nfet_01v8_lvt__nfactor_slope/sqrt(l*w*mult))}
+ up = 0.0
+ ud = 0.0
+ lp = 1.0
+ tvfbsdoff = 0.0
+ tvoff = 0.0
+ cit = 1.0e-5
+ cdsc = 3.8556e-37
+ cdscb = -0.00011484
+ cdscd = 4.7984e-6
+ eta0 = 0.08
+ etab = -0.07
+ dsub = 0.56
* BSIM4 - Sub-threshold parameters
+ voffl = 0.0
+ minv = 0.0
* Rout Parameters
+ pclm = 0.2
+ pdiblc1 = 0.39
+ pdiblc2 = 0.0047977
+ pdiblcb = 0.0
+ drout = 3.4946
+ pscbe1 = 450000000.0
+ pscbe2 = 1.0e-8
+ pvag = 0.0
+ delta = 0.01
+ alpha0 = 8.4345657e-5
+ alpha1 = 0.0
+ beta0 = 17.822982
* BSIM4 - Rout Parameters
+ fprout = 0.0
+ pdits = 1.4427e-15
+ pditsl = 0.0
+ pditsd = 0.0
* BSIM4 - Gate Induced Drain Leakage Model Parameters
+ agidl = 0.0
+ bgidl = 2300000000.0
+ cgidl = 0.5
+ egidl = 0.8
* BSIM4 - Gate Leakage Current Parameters
+ aigbacc = 1.0
+ bigbacc = 0.0
+ cigbacc = 0.0
+ nigbacc = 1.0
+ aigbinv = 0.35
+ bigbinv = 0.03
+ cigbinv = 0.006
+ eigbinv = 1.1
+ nigbinv = 3.0
+ aigc = 0.43
+ bigc = 0.054
+ cigc = 0.075
+ nigc = 1.0
+ aigsd = 0.43
+ bigsd = 0.054
+ cigsd = 0.075
+ dlcig = 0.0
+ poxedge = 1.0
+ pigcd = 1.0
+ ntox = 1.0
+ toxref = 4.148e-9
* Temperature Effects Parameters
+ kt1 = -0.25364
+ kt2 = -0.034423
+ at = 333080.0
+ ute = -1.0777
+ ua1 = 2.6823e-9
+ ub1 = -2.4433e-18
+ uc1 = -1.9223e-11
+ kt1l = 0.0
+ prt = 0.0
* BSIM4 - High Speed RF Model Parameters
+ xrcrg1 = 12.0
+ xrcrg2 = 1.0
+ rbpb = 50.0
+ rbpd = 50.0
+ rbps = 50.0
+ rbdb = 50.0
+ rbsb = 50.0
+ gbmin = 1.0e-12
* BSIM4 - Flicker and Thermal Noise Parameters
+ noia = 9.0e+41
+ noib = 1.0e+27
+ noic = 800000000000.0
+ em = 41000000.0
+ af = 1.0
+ ef = 1.2
+ kf = 0.0
+ ntnoi = 1.0
* BSIM4 - Layout Dependent Parasitic Model Parameters
+ dmcg = 0.0
+ dmcgt = 0.0
+ dmdg = 0.0
+ xgw = 0.0
+ xgl = 0.0
+ ngcon = 1.0
* Diode DC IV Parameters
* BSIM4 - Diode DC IV parameters
+ diomod = 1.0
+ njs = 1.2928
+ jss = 0.00275
+ jsws = 6.0e-10
+ xtis = 2.0
+ bvs = 11.9
+ xjbvs = 1.0
+ ijthsrev = 0.1
+ ijthsfwd = 0.1
* Diode and FET Capacitance Parameters
+ tpb = 0.0012287
+ tpbsw = 0.0
+ tpbswg = 0.0
+ tcj = 0.000792
+ tcjsw = 1.0e-5
+ tcjswg = 0.0
+ cgdo = 2.281312791e-10
+ cgso = 2.281312791e-10
+ cgbo = 1.0e-14
+ capmod = 2.0
+ xpart = 0.0
+ cgsl = 2.202975e-11
+ cgdl = 2.202975e-11
+ cf = 1.0e-14
+ clc = 1.0e-7
+ cle = 0.6
+ dlc = 2.11821e-8
+ dwc = 3.48e-9
+ vfbcv = -1.0
+ acde = 0.38008
+ moin = 23.81
+ noff = 3.8661
+ voffcv = -0.16994
+ ngate = 1.0e+23
+ lwc = 0.0
+ llc = 0.0
+ lwlc = 0.0
+ wlc = 0.0
+ wwc = 0.0
+ wwlc = 0.0
* BSIM4 - FET and Diode capacitance parameters
+ ckappas = 0.6
+ cjs = 0.00106130856
+ mjs = 0.42197
+ pbs = 0.7477
+ cjsws = 2.834310656e-11
+ mjsws = 0.001
+ pbsws = 0.1
+ cjswgs = 1.575208208e-10
+ mjswgs = 0.8
+ pbswgs = 0.79644
* Stress Parameters
+ saref = 3.0e-6
+ sbref = 3.0e-6
+ wlod = {0+sky130_fd_pr__nfet_01v8_lvt__wlod_diff}
+ kvth0 = {0+sky130_fd_pr__nfet_01v8_lvt__kvth0_diff}
+ lkvth0 = {0+sky130_fd_pr__nfet_01v8_lvt__lkvth0_diff}
+ wkvth0 = {0+sky130_fd_pr__nfet_01v8_lvt__wkvth0_diff}
+ pkvth0 = 0.0
+ llodvth = 0.0
+ wlodvth = 1.0
+ stk2 = 0.0
+ lodk2 = 1.0
+ lodeta0 = 1.0
+ ku0 = {0+sky130_fd_pr__nfet_01v8_lvt__ku0_diff}
+ lku0 = {0+sky130_fd_pr__nfet_01v8_lvt__lku0_diff}
+ wku0 = {0+sky130_fd_pr__nfet_01v8_lvt__wku0_diff}
+ pku0 = 0.0
+ llodku0 = 0.0
+ wlodku0 = 1.0
+ kvsat = {0+sky130_fd_pr__nfet_01v8_lvt__kvsat_diff}
+ steta0 = 0.0
+ tku0 = 0.0
.model sky130_fd_pr__nfet_01v8_lvt__model.1 nmos
* DC IV MOS Parameters
+ lmin = 4e-06 lmax = 8e-06 wmin = 7e-06 wmax = 1.0e-4
+ level = 54.0
+ tnom = 30.0
+ version = 4.5
+ toxm = 4.148e-9
+ xj = 1.5e-7
+ lln = 1.0
+ lwn = 1.0
+ wln = 1.0
+ wwn = 1.0
+ lint = 2.41525e-8
+ ll = 0.0
+ lw = 0.0
+ lwl = 0.0
+ wint = 3.48e-9
+ wl = 0.0
+ ww = 0.0
+ wwl = 0.0
+ xl = 0.0
+ xw = 0.0
+ mobmod = 0.0
+ binunit = 2.0
+ dwg = -1.33e-8
+ dwb = -1.08e-8
* BSIM4 - Model Selectors
+ igcmod = 0.0
+ igbmod = 0.0
+ rgatemod = 0.0
+ rbodymod = 1.0
+ trnqsmod = 0.0
+ acnqsmod = 0.0
+ fnoimod = 1.0
+ tnoimod = 1.0
+ permod = 1.0
+ geomod = 0.0
+ rdsmod = 0.0
+ tempmod = 0.0
+ lintnoi = -3.0e-7
+ vfbsdoff = 0.0
+ lambda = 0.0
+ vtl = 0.0
+ lc = 0.0
+ xn = 0.0
+ rnoia = 0.912
+ rnoib = 0.26
+ tnoia = 25000000.0
+ tnoib = 9900000.0
* BSIM4 - Process Parameters
+ epsrox = 3.9
+ toxe = {3.996598e-09+sky130_fd_pr__nfet_01v8_lvt__toxe_slope_spectre*(3.996598e-09*(sky130_fd_pr__nfet_01v8_lvt__toxe_slope/sqrt(l*w*mult)))}
+ dtox = 0.0
+ ndep = 1.7000000000000000e+17
+ nsd = 1.0e+20
+ rshg = 0.1
+ rsh = 1.0
* Threshold Voltage Parameters
+ vth0 = {4.082993200e-01+sky130_fd_pr__nfet_01v8_lvt__vth0_slope_spectre*(sky130_fd_pr__nfet_01v8_lvt__vth0_slope2/sqrt(l*w*mult))} lvth0 = 7.476724334e-08 wvth0 = 6.575331717e-08 pvth0 = -5.228503233e-13
+ k1 = 5.484178983e-01 lk1 = -6.066180995e-07 wk1 = -5.334843243e-07 pk1 = 4.242104634e-12
+ k2 = -6.014295857e-02 lk2 = 2.071278074e-07 wk2 = 1.821565141e-07 pk2 = -1.448453042e-12
+ k3 = 1.65
+ dvt0 = 0.07665
+ dvt1 = 0.1252
+ dvt2 = -0.05637
+ dvt0w = 0.0
+ dvt1w = 5300000.0
+ dvt2w = -0.032
+ w0 = 1.0e-7
+ k3b = 1.6
+ vfb = 0.0
* NEW BSIM4 Parameters for Level 54
+ phin = 0.0
+ lpe0 = 2.3802e-7
+ lpeb = -4.9152e-8
+ vbm = -3.0
+ dvtp0 = 0.0
+ dvtp1 = 0.0
* Mobility Parameters
+ vsat = 7.424062713e+04 lvsat = 6.909973088e-01 wvsat = 6.076907905e-01 pvsat = -4.832171820e-6
+ ua = -1.339578462e-09 lua = 3.023128007e-16 wua = 2.658660208e-16 pua = -2.114085508e-21
+ ub = 2.692004298e-18 lub = -3.859989856e-26 wub = -3.394630134e-26 pub = 2.699306346e-31
+ uc = 6.984502141e-11 luc = 2.441000150e-18 wuc = 2.146713586e-18 puc = -1.707001169e-23
+ rdsw = 103.65
+ prwb = 0.0
+ prwg = 0.0
+ wr = 1.0
+ u0 = 3.166786085e-02 lu0 = 3.534044542e-09 wu0 = 3.107980732e-09 pu0 = -2.471371484e-14
+ a0 = 1.993636486e+00 la0 = -3.008402610e-07 wa0 = -2.645710102e-07 pa0 = 2.103787979e-12
+ keta = 0.0
+ a1 = 0.0
+ a2 = 0.38689047
+ ags = 5.343483274e-01 lags = 1.604387469e-07 wags = 1.410962788e-07 pags = -1.121954574e-12
+ b0 = 0.0
+ b1 = 0.0
* BSIM4 - Mobility Parameters
+ eu = 1.67
+ rdswmin = 0.0
+ rdw = 0.0
+ rdwmin = 0.0
+ rsw = 0.0
+ rswmin = 0.0
* Subthreshold Current Parameters
+ voff = {-1.120894156e-01+sky130_fd_pr__nfet_01v8_lvt__voff_slope_spectre*(sky130_fd_pr__nfet_01v8_lvt__voff_slope/sqrt(l*w*mult))} lvoff = -2.790865576e-08 wvoff = -2.454399296e-08 pvoff = 1.951663461e-13
+ nfactor = {1.107586083e+00+sky130_fd_pr__nfet_01v8_lvt__nfactor_slope_spectre*(sky130_fd_pr__nfet_01v8_lvt__nfactor_slope/sqrt(l*w*mult))} lnfactor = -5.505609111e-07 wnfactor = -4.841853811e-07 pnfactor = 3.850094474e-12
+ up = 0.0
+ ud = 0.0
+ lp = 1.0
+ tvfbsdoff = 0.0
+ tvoff = 0.0
+ cit = 1.0e-5
+ cdsc = 3.8556e-37
+ cdscb = -0.00011484
+ cdscd = 4.7984e-6
+ eta0 = 0.08
+ etab = -0.07
+ dsub = 0.56
* BSIM4 - Sub-threshold parameters
+ voffl = 0.0
+ minv = 0.0
* Rout Parameters
+ pclm = 3.397379306e-01 lpclm = -1.111153404e-06 wpclm = -9.771929379e-07 ppclm = 7.770340199e-12
+ pdiblc1 = 0.39
+ pdiblc2 = 2.897088242e-03 lpdiblc2 = 1.511308501e-08 wpdiblc2 = 1.329105404e-08 ppdiblc2 = -1.056864080e-13
+ pdiblcb = 0.0
+ drout = 3.4946
+ pscbe1 = 450000000.0
+ pscbe2 = 1.0e-8
+ pvag = 0.0
+ delta = 0.01
+ alpha0 = 1.380464198e-04 lalpha0 = -4.270120873e-10 walpha0 = -3.755315825e-10 palpha0 = 2.986112607e-15
+ alpha1 = 0.0
+ beta0 = 1.812212786e+01 lbeta0 = -2.378716637e-06 wbeta0 = -2.091938963e-06 pbeta0 = 1.663446059e-11
* BSIM4 - Rout Parameters
+ fprout = 0.0
+ pdits = 1.4427e-15
+ pditsl = 0.0
+ pditsd = 0.0
* BSIM4 - Gate Induced Drain Leakage Model Parameters
+ agidl = 0.0
+ bgidl = 2300000000.0
+ cgidl = 0.5
+ egidl = 0.8
* BSIM4 - Gate Leakage Current Parameters
+ aigbacc = 1.0
+ bigbacc = 0.0
+ cigbacc = 0.0
+ nigbacc = 1.0
+ aigbinv = 0.35
+ bigbinv = 0.03
+ cigbinv = 0.006
+ eigbinv = 1.1
+ nigbinv = 3.0
+ aigc = 0.43
+ bigc = 0.054
+ cigc = 0.075
+ nigc = 1.0
+ aigsd = 0.43
+ bigsd = 0.054
+ cigsd = 0.075
+ dlcig = 0.0
+ poxedge = 1.0
+ pigcd = 1.0
+ ntox = 1.0
+ toxref = 4.148e-9
* Temperature Effects Parameters
+ kt1 = -2.532257382e-01 lkt1 = -3.294083247e-09 wkt1 = -2.896949130e-09 pkt1 = 2.303565591e-14
+ kt2 = -3.413939002e-02 lkt2 = -2.255180069e-09 wkt2 = -1.983295943e-09 pkt2 = 1.577056443e-14
+ at = 6.145496287e+05 lat = -2.238160639e+00 wat = -1.968328372e+00 pat = 1.565154687e-5
+ ute = -9.510846077e-01 lute = -1.006806982e-06 wute = -8.854265032e-07 pute = 7.040641498e-12
+ ua1 = 2.424183051e-09 lua1 = 2.052467254e-15 wua1 = 1.805022150e-15 pua1 = -1.435298560e-20
+ ub1 = -1.561878418e-18 lub1 = -7.008795585e-24 wub1 = -6.163816379e-24 pub1 = 4.901278788e-29
+ uc1 = -1.098556403e-11 luc1 = -6.550157841e-17 wuc1 = -5.760471923e-17 puc1 = 4.580551579e-22
+ kt1l = 0.0
+ prt = 0.0
* BSIM4 - High Speed RF Model Parameters
+ xrcrg1 = 12.0
+ xrcrg2 = 1.0
+ rbpb = 50.0
+ rbpd = 50.0
+ rbps = 50.0
+ rbdb = 50.0
+ rbsb = 50.0
+ gbmin = 1.0e-12
* BSIM4 - Flicker and Thermal Noise Parameters
+ noia = 9.0e+41
+ noib = 1.0e+27
+ noic = 800000000000.0
+ em = 41000000.0
+ af = 1.0
+ ef = 1.2
+ kf = 0.0
+ ntnoi = 1.0
* BSIM4 - Layout Dependent Parasitic Model Parameters
+ dmcg = 0.0
+ dmcgt = 0.0
+ dmdg = 0.0
+ xgw = 0.0
+ xgl = 0.0
+ ngcon = 1.0
* Diode DC IV Parameters
* BSIM4 - Diode DC IV parameters
+ diomod = 1.0
+ njs = 1.2928
+ jss = 0.00275
+ jsws = 6.0e-10
+ xtis = 2.0
+ bvs = 11.9
+ xjbvs = 1.0
+ ijthsrev = 0.1
+ ijthsfwd = 0.1
* Diode and FET Capacitance Parameters
+ tpb = 0.0012287
+ tpbsw = 0.0
+ tpbswg = 0.0
+ tcj = 0.000792
+ tcjsw = 1.0e-5
+ tcjswg = 0.0
+ cgdo = 2.281312791e-10
+ cgso = 2.281312791e-10
+ cgbo = 1.0e-14
+ capmod = 2.0
+ xpart = 0.0
+ cgsl = 2.202975e-11
+ cgdl = 2.202975e-11
+ cf = 1.0e-14
+ clc = 1.0e-7
+ cle = 0.6
+ dlc = 2.11821e-8
+ dwc = 3.48e-9
+ vfbcv = -1.0
+ acde = 0.38008
+ moin = 23.81
+ noff = 3.8661
+ voffcv = -0.16994
+ ngate = 1.0e+23
+ lwc = 0.0
+ llc = 0.0
+ lwlc = 0.0
+ wlc = 0.0
+ wwc = 0.0
+ wwlc = 0.0
* BSIM4 - FET and Diode capacitance parameters
+ ckappas = 0.6
+ cjs = 0.00106130856
+ mjs = 0.42197
+ pbs = 0.7477
+ cjsws = 2.834310656e-11
+ mjsws = 0.001
+ pbsws = 0.1
+ cjswgs = 1.575208208e-10
+ mjswgs = 0.8
+ pbswgs = 0.79644
* Stress Parameters
+ saref = 3.0e-6
+ sbref = 3.0e-6
+ wlod = {0+sky130_fd_pr__nfet_01v8_lvt__wlod_diff}
+ kvth0 = {0+sky130_fd_pr__nfet_01v8_lvt__kvth0_diff}
+ lkvth0 = {0+sky130_fd_pr__nfet_01v8_lvt__lkvth0_diff}
+ wkvth0 = {0+sky130_fd_pr__nfet_01v8_lvt__wkvth0_diff}
+ pkvth0 = 0.0
+ llodvth = 0.0
+ wlodvth = 1.0
+ stk2 = 0.0
+ lodk2 = 1.0
+ lodeta0 = 1.0
+ ku0 = {0+sky130_fd_pr__nfet_01v8_lvt__ku0_diff}
+ lku0 = {0+sky130_fd_pr__nfet_01v8_lvt__lku0_diff}
+ wku0 = {0+sky130_fd_pr__nfet_01v8_lvt__wku0_diff}
+ pku0 = 0.0
+ llodku0 = 0.0
+ wlodku0 = 1.0
+ kvsat = {0+sky130_fd_pr__nfet_01v8_lvt__kvsat_diff}
+ steta0 = 0.0
+ tku0 = 0.0
.model sky130_fd_pr__nfet_01v8_lvt__model.2 nmos
* DC IV MOS Parameters
+ lmin = 2e-06 lmax = 4e-06 wmin = 7e-06 wmax = 1.0e-4
+ level = 54.0
+ tnom = 30.0
+ version = 4.5
+ toxm = 4.148e-9
+ xj = 1.5e-7
+ lln = 1.0
+ lwn = 1.0
+ wln = 1.0
+ wwn = 1.0
+ lint = 2.41525e-8
+ ll = 0.0
+ lw = 0.0
+ lwl = 0.0
+ wint = 3.48e-9
+ wl = 0.0
+ ww = 0.0
+ wwl = 0.0
+ xl = 0.0
+ xw = 0.0
+ mobmod = 0.0
+ binunit = 2.0
+ dwg = -1.33e-8
+ dwb = -1.08e-8
* BSIM4 - Model Selectors
+ igcmod = 0.0
+ igbmod = 0.0
+ rgatemod = 0.0
+ rbodymod = 1.0
+ trnqsmod = 0.0
+ acnqsmod = 0.0
+ fnoimod = 1.0
+ tnoimod = 1.0
+ permod = 1.0
+ geomod = 0.0
+ rdsmod = 0.0
+ tempmod = 0.0
+ lintnoi = -3.0e-7
+ vfbsdoff = 0.0
+ lambda = 0.0
+ vtl = 0.0
+ lc = 0.0
+ xn = 0.0
+ rnoia = 0.912
+ rnoib = 0.26
+ tnoia = 25000000.0
+ tnoib = 9900000.0
* BSIM4 - Process Parameters
+ epsrox = 3.9
+ toxe = {3.996598e-09+sky130_fd_pr__nfet_01v8_lvt__toxe_slope_spectre*(3.996598e-09*(sky130_fd_pr__nfet_01v8_lvt__toxe_slope/sqrt(l*w*mult)))}
+ dtox = 0.0
+ ndep = 1.7000000000000000e+17
+ nsd = 1.0e+20
+ rshg = 0.1
+ rsh = 1.0
* Threshold Voltage Parameters
+ vth0 = {4.237652312e-01+sky130_fd_pr__nfet_01v8_lvt__vth0_slope_spectre*(sky130_fd_pr__nfet_01v8_lvt__vth0_slope/sqrt(l*w*mult))} lvth0 = 1.365067941e-08 wvth0 = -1.315066343e-07 pvth0 = 2.566608407e-13
+ k1 = 3.602860781e-01 lk1 = 1.368214739e-07 wk1 = 1.066968649e-06 pk1 = -2.082397377e-12
+ k2 = 3.470276840e-03 lk2 = -4.425229689e-08 wk2 = -3.643130282e-07 pk2 = 7.110279155e-13
+ k3 = 1.65
+ dvt0 = 0.07665
+ dvt1 = 0.1252
+ dvt2 = -0.05637
+ dvt0w = 0.0
+ dvt1w = 5300000.0
+ dvt2w = -0.032
+ w0 = 1.0e-7
+ k3b = 1.6
+ vfb = 0.0
* NEW BSIM4 Parameters for Level 54
+ phin = 0.0
+ lpe0 = 2.3802e-7
+ lpeb = -4.9152e-8
+ vbm = -3.0
+ dvtp0 = 0.0
+ dvtp1 = 0.0
* Mobility Parameters
+ vsat = 4.477945333e+05 lvsat = -7.851737944e-01 wvsat = -1.215381581e+00 pvsat = 2.372054155e-6
+ ua = -1.299861368e-09 lua = 1.453629628e-16 wua = -5.317320415e-16 pua = 1.037778767e-21
+ ub = 2.635099381e-18 lub = 1.862709796e-25 wub = 6.789260268e-26 pub = -1.325056532e-31
+ uc = 6.804041512e-11 luc = 9.572253787e-18 wuc = -4.293427172e-18 puc = 8.379460344e-24
+ rdsw = 103.65
+ prwb = 0.0
+ prwg = 0.0
+ wr = 1.0
+ u0 = 3.092629231e-02 lu0 = 6.464497264e-09 wu0 = -6.215961463e-09 pu0 = 1.213166091e-14
+ a0 = 1.840206672e+00 la0 = 3.054675683e-07 wa0 = 5.291420204e-07 pa0 = -1.032723836e-12
+ keta = 1.800731392e-01 lketa = -7.115941237e-7
+ a1 = 0.0
+ a2 = 0.38689047
+ ags = -3.616272718e-01 lags = 3.701061042e-06 wags = -2.821925575e-07 pags = 5.507538035e-13
+ b0 = 0.0
+ b1 = 0.0
* BSIM4 - Mobility Parameters
+ eu = 1.67
+ rdswmin = 0.0
+ rdw = 0.0
+ rdwmin = 0.0
+ rsw = 0.0
+ rswmin = 0.0
* Subthreshold Current Parameters
+ voff = {-1.223285511e-01+sky130_fd_pr__nfet_01v8_lvt__voff_slope_spectre*(sky130_fd_pr__nfet_01v8_lvt__voff_slope/sqrt(l*w*mult))} lvoff = 1.255328484e-08 wvoff = 4.908798591e-08 pvoff = -9.580477667e-14
+ nfactor = {6.413298149e-01+sky130_fd_pr__nfet_01v8_lvt__nfactor_slope_spectre*(sky130_fd_pr__nfet_01v8_lvt__nfactor_slope/sqrt(l*w*mult))} lnfactor = 1.291941651e-06 wnfactor = 9.683707622e-07 pnfactor = -1.889964375e-12
+ up = 0.0
+ ud = 0.0
+ lp = 1.0
+ tvfbsdoff = 0.0
+ tvoff = 0.0
+ cit = 1.0e-5
+ cdsc = 3.8556e-37
+ cdscb = -0.00011484
+ cdscd = 4.7984e-6
+ eta0 = 1.575798763e-01 leta0 = -3.065720091e-7
+ etab = -1.378214013e-01 letab = 2.680094922e-7
+ dsub = 8.303355979e-01 ldsub = -1.068283831e-6
* BSIM4 - Sub-threshold parameters
+ voffl = 0.0
+ minv = 0.0
* Rout Parameters
+ pclm = -1.088488709e-01 lpclm = 6.615248165e-07 wpclm = 1.954385876e-06 ppclm = -3.814365142e-12
+ pdiblc1 = 0.39
+ pdiblc2 = 4.799168520e-03 lpdiblc2 = 7.596643889e-09 wpdiblc2 = -2.658210809e-08 ppdiblc2 = 5.188016745e-14
+ pdiblcb = 0.0
+ drout = 3.4946
+ pscbe1 = 450000000.0
+ pscbe2 = 1.0e-8
+ pvag = 0.0
+ delta = 0.01
+ alpha0 = -6.348910763e-05 lalpha0 = 3.693948489e-10 walpha0 = 7.510631650e-10 palpha0 = -1.465846224e-15
+ alpha1 = 0.0
+ beta0 = 1.383496396e+01 lbeta0 = 1.456284751e-05 wbeta0 = 4.183877926e-06 pbeta0 = -8.165653629e-12
* BSIM4 - Rout Parameters
+ fprout = 0.0
+ pdits = 1.4427e-15
+ pditsl = 0.0
+ pditsd = 0.0
* BSIM4 - Gate Induced Drain Leakage Model Parameters
+ agidl = 0.0
+ bgidl = 2300000000.0
+ cgidl = 0.5
+ egidl = 0.8
* BSIM4 - Gate Leakage Current Parameters
+ aigbacc = 1.0
+ bigbacc = 0.0
+ cigbacc = 0.0
+ nigbacc = 1.0
+ aigbinv = 0.35
+ bigbinv = 0.03
+ cigbinv = 0.006
+ eigbinv = 1.1
+ nigbinv = 3.0
+ aigc = 0.43
+ bigc = 0.054
+ cigc = 0.075
+ nigc = 1.0
+ aigsd = 0.43
+ bigsd = 0.054
+ cigsd = 0.075
+ dlcig = 0.0
+ poxedge = 1.0
+ pigcd = 1.0
+ ntox = 1.0
+ toxref = 4.148e-9
* Temperature Effects Parameters
+ kt1 = -2.544782820e-01 lkt1 = 1.655587768e-09 wkt1 = 5.793898259e-09 pkt1 = -1.130792226e-14
+ kt2 = -3.964306084e-02 lkt2 = 1.949364841e-08 wkt2 = 3.966591885e-09 pkt2 = -7.741577549e-15
+ at = 4.503893511e+04 lat = 1.237192125e-02 wat = 3.936656744e+00 pat = -7.683153284e-6
+ ute = -1.241640738e+00 lute = 1.413822270e-07 wute = 1.770853006e-06 pute = -3.456164958e-12
+ ua1 = 2.642495993e-09 lua1 = 1.189761093e-15 wua1 = -3.610044300e-15 pua1 = 7.045705410e-21
+ ub1 = -2.914608997e-18 lub1 = -1.663216919e-24 wub1 = 1.232763276e-23 pub1 = -2.405977921e-29
+ uc1 = -2.054783950e-11 luc1 = -2.771438225e-17 wuc1 = 1.152094385e-16 puc1 = -2.248536850e-22
+ kt1l = 0.0
+ prt = 0.0
* BSIM4 - High Speed RF Model Parameters
+ xrcrg1 = 12.0
+ xrcrg2 = 1.0
+ rbpb = 50.0
+ rbpd = 50.0
+ rbps = 50.0
+ rbdb = 50.0
+ rbsb = 50.0
+ gbmin = 1.0e-12
* BSIM4 - Flicker and Thermal Noise Parameters
+ noia = 9.0e+41
+ noib = 1.0e+27
+ noic = 800000000000.0
+ em = 41000000.0
+ af = 1.0
+ ef = 1.2
+ kf = 0.0
+ ntnoi = 1.0
* BSIM4 - Layout Dependent Parasitic Model Parameters
+ dmcg = 0.0
+ dmcgt = 0.0
+ dmdg = 0.0
+ xgw = 0.0
+ xgl = 0.0
+ ngcon = 1.0
* Diode DC IV Parameters
* BSIM4 - Diode DC IV parameters
+ diomod = 1.0
+ njs = 1.2928
+ jss = 0.00275
+ jsws = 6.0e-10
+ xtis = 2.0
+ bvs = 11.9
+ xjbvs = 1.0
+ ijthsrev = 0.1
+ ijthsfwd = 0.1
* Diode and FET Capacitance Parameters
+ tpb = 0.0012287
+ tpbsw = 0.0
+ tpbswg = 0.0
+ tcj = 0.000792
+ tcjsw = 1.0e-5
+ tcjswg = 0.0
+ cgdo = 2.281312791e-10
+ cgso = 2.281312791e-10
+ cgbo = 1.0e-14
+ capmod = 2.0
+ xpart = 0.0
+ cgsl = 2.202975e-11
+ cgdl = 2.202975e-11
+ cf = 1.0e-14
+ clc = 1.0e-7
+ cle = 0.6
+ dlc = 2.11821e-8
+ dwc = 3.48e-9
+ vfbcv = -1.0
+ acde = 0.38008
+ moin = 23.81
+ noff = 3.8661
+ voffcv = -0.16994
+ ngate = 1.0e+23
+ lwc = 0.0
+ llc = 0.0
+ lwlc = 0.0
+ wlc = 0.0
+ wwc = 0.0
+ wwlc = 0.0
* BSIM4 - FET and Diode capacitance parameters
+ ckappas = 0.6
+ cjs = 0.00106130856
+ mjs = 0.42197
+ pbs = 0.7477
+ cjsws = 2.834310656e-11
+ mjsws = 0.001
+ pbsws = 0.1
+ cjswgs = 1.575208208e-10
+ mjswgs = 0.8
+ pbswgs = 0.79644
* Stress Parameters
+ saref = 3.0e-6
+ sbref = 3.0e-6
+ wlod = {0+sky130_fd_pr__nfet_01v8_lvt__wlod_diff}
+ kvth0 = {0+sky130_fd_pr__nfet_01v8_lvt__kvth0_diff}
+ lkvth0 = {0+sky130_fd_pr__nfet_01v8_lvt__lkvth0_diff}
+ wkvth0 = {0+sky130_fd_pr__nfet_01v8_lvt__wkvth0_diff}
+ pkvth0 = 0.0
+ llodvth = 0.0
+ wlodvth = 1.0
+ stk2 = 0.0
+ lodk2 = 1.0
+ lodeta0 = 1.0
+ ku0 = {0+sky130_fd_pr__nfet_01v8_lvt__ku0_diff}
+ lku0 = {0+sky130_fd_pr__nfet_01v8_lvt__lku0_diff}
+ wku0 = {0+sky130_fd_pr__nfet_01v8_lvt__wku0_diff}
+ pku0 = 0.0
+ llodku0 = 0.0
+ wlodku0 = 1.0
+ kvsat = {0+sky130_fd_pr__nfet_01v8_lvt__kvsat_diff}
+ steta0 = 0.0
+ tku0 = 0.0
.model sky130_fd_pr__nfet_01v8_lvt__model.3 nmos
* DC IV MOS Parameters
+ lmin = 1e-06 lmax = 2e-06 wmin = 7e-06 wmax = 1.0e-4
+ level = 54.0
+ tnom = 30.0
+ version = 4.5
+ toxm = 4.148e-9
+ xj = 1.5e-7
+ lln = 1.0
+ lwn = 1.0
+ wln = 1.0
+ wwn = 1.0
+ lint = 2.41525e-8
+ ll = 0.0
+ lw = 0.0
+ lwl = 0.0
+ wint = 3.48e-9
+ wl = 0.0
+ ww = 0.0
+ wwl = 0.0
+ xl = 0.0
+ xw = 0.0
+ mobmod = 0.0
+ binunit = 2.0
+ dwg = -1.33e-8
+ dwb = -1.08e-8
* BSIM4 - Model Selectors
+ igcmod = 0.0
+ igbmod = 0.0
+ rgatemod = 0.0
+ rbodymod = 1.0
+ trnqsmod = 0.0
+ acnqsmod = 0.0
+ fnoimod = 1.0
+ tnoimod = 1.0
+ permod = 1.0
+ geomod = 0.0
+ rdsmod = 0.0
+ tempmod = 0.0
+ lintnoi = -3.0e-7
+ vfbsdoff = 0.0
+ lambda = 0.0
+ vtl = 0.0
+ lc = 0.0
+ xn = 0.0
+ rnoia = 0.912
+ rnoib = 0.26
+ tnoia = 25000000.0
+ tnoib = 9900000.0
* BSIM4 - Process Parameters
+ epsrox = 3.9
+ toxe = {3.996598e-09+sky130_fd_pr__nfet_01v8_lvt__toxe_slope_spectre*(3.996598e-09*(sky130_fd_pr__nfet_01v8_lvt__toxe_slope/sqrt(l*w*mult)))}
+ dtox = 0.0
+ ndep = 1.7000000000000000e+17
+ nsd = 1.0e+20
+ rshg = 0.1
+ rsh = 1.0
* Threshold Voltage Parameters
+ vth0 = {4.271565445e-01+sky130_fd_pr__nfet_01v8_lvt__vth0_slope_spectre*(sky130_fd_pr__nfet_01v8_lvt__vth0_slope/sqrt(l*w*mult))} lvth0 = 7.031870199e-9
+ k1 = 4.290481100e-01 lk1 = 2.618959906e-9
+ k2 = -1.502755751e-02 lk2 = -8.150166079e-9
+ k3 = 1.65
+ dvt0 = 0.07665
+ dvt1 = 0.1252
+ dvt2 = -0.05637
+ dvt0w = 0.0
+ dvt1w = 5300000.0
+ dvt2w = -0.032
+ w0 = 1.0e-7
+ k3b = 1.6
+ vfb = 0.0
* NEW BSIM4 Parameters for Level 54
+ phin = 0.0
+ lpe0 = 2.3802e-7
+ lpeb = -4.9152e-8
+ vbm = -3.0
+ dvtp0 = 0.0
+ dvtp1 = 0.0
* Mobility Parameters
+ vsat = 1.983806128e+04 lvsat = 5.006671224e-2
+ ua = -9.566940898e-10 lua = -5.243948992e-16
+ ub = 2.645230060e-18 lub = 1.664989830e-25
+ uc = 5.999528613e-11 luc = 2.527389180e-17
+ rdsw = 103.65
+ prwb = 0.0
+ prwg = 0.0
+ wr = 1.0
+ u0 = 3.826786436e-02 lu0 = -7.864012204e-9
+ a0 = 2.185738384e+00 la0 = -3.689049464e-07 wa0 = -3.388131789e-21
+ keta = -1.459007000e-01 lketa = -7.539261176e-8
+ a1 = 0.0
+ a2 = 0.38689047
+ ags = 8.887389443e-01 lags = 1.260727550e-6
+ b0 = 0.0
+ b1 = 0.0
* BSIM4 - Mobility Parameters
+ eu = 1.67
+ rdswmin = 0.0
+ rdw = 0.0
+ rdwmin = 0.0
+ rsw = 0.0
+ rswmin = 0.0
* Subthreshold Current Parameters
+ voff = {-1.170390794e-01+sky130_fd_pr__nfet_01v8_lvt__voff_slope_spectre*(sky130_fd_pr__nfet_01v8_lvt__voff_slope/sqrt(l*w*mult))} lvoff = 2.229849331e-9
+ nfactor = {8.688151836e-01+sky130_fd_pr__nfet_01v8_lvt__nfactor_slope_spectre*(sky130_fd_pr__nfet_01v8_lvt__nfactor_slope/sqrt(l*w*mult))} lnfactor = 8.479595944e-7
+ up = 0.0
+ ud = 0.0
+ lp = 1.0
+ tvfbsdoff = 0.0
+ tvoff = 0.0
+ cit = 1.475847500e-05 lcit = -9.287091865e-12
+ cdsc = 3.8556e-37
+ cdscb = -0.00011484
+ cdscd = 4.7984e-6
+ eta0 = 5.889454147e-04 leta0 = -1.735943211e-10
+ etab = -5.405612409e-04 letab = 7.916317106e-11
+ dsub = -4.321683872e-02 ldsub = 6.366240922e-7
* BSIM4 - Sub-threshold parameters
+ voffl = 0.0
+ minv = 0.0
* Rout Parameters
+ pclm = 2.292529914e-01 lpclm = 1.653102352e-9
+ pdiblc1 = 0.39
+ pdiblc2 = 7.056963837e-03 lpdiblc2 = 3.190116056e-9
+ pdiblcb = 0.0
+ drout = 3.4946
+ pscbe1 = 450000000.0
+ pscbe2 = 1.0e-8
+ pvag = 0.0
+ delta = 0.01
+ alpha0 = 1.850831459e-04 lalpha0 = -1.157423754e-10
+ alpha1 = 0.0
+ beta0 = 2.119942742e+01 lbeta0 = 1.896609901e-7
* BSIM4 - Rout Parameters
+ fprout = 0.0
+ pdits = 1.4427e-15
+ pditsl = 0.0
+ pditsd = 0.0
* BSIM4 - Gate Induced Drain Leakage Model Parameters
+ agidl = 0.0
+ bgidl = 2300000000.0
+ cgidl = 0.5
+ egidl = 0.8
* BSIM4 - Gate Leakage Current Parameters
+ aigbacc = 1.0
+ bigbacc = 0.0
+ cigbacc = 0.0
+ nigbacc = 1.0
+ aigbinv = 0.35
+ bigbinv = 0.03
+ cigbinv = 0.006
+ eigbinv = 1.1
+ nigbinv = 3.0
+ aigc = 0.43
+ bigc = 0.054
+ cigc = 0.075
+ nigc = 1.0
+ aigsd = 0.43
+ bigsd = 0.054
+ cigsd = 0.075
+ dlcig = 0.0
+ poxedge = 1.0
+ pigcd = 1.0
+ ntox = 1.0
+ toxref = 4.148e-9
* Temperature Effects Parameters
+ kt1 = -2.507558811e-01 lkt1 = -5.609403487e-9
+ kt2 = -4.554545142e-02 lkt2 = 3.101331457e-8
+ at = 3.150280162e+04 lat = 3.879032530e-2
+ ute = -1.320519505e+00 lute = 2.953295213e-7
+ ua1 = 3.273417968e-09 lua1 = -4.160617156e-17
+ ub1 = -3.904795775e-18 lub1 = 2.693256641e-25
+ uc1 = 1.013012942e-11 luc1 = -8.758842080e-17
+ kt1l = 0.0
+ prt = 0.0
* BSIM4 - High Speed RF Model Parameters
+ xrcrg1 = 12.0
+ xrcrg2 = 1.0
+ rbpb = 50.0
+ rbpd = 50.0
+ rbps = 50.0
+ rbdb = 50.0
+ rbsb = 50.0
+ gbmin = 1.0e-12
* BSIM4 - Flicker and Thermal Noise Parameters
+ noia = 9.0e+41
+ noib = 1.0e+27
+ noic = 800000000000.0
+ em = 41000000.0
+ af = 1.0
+ ef = 1.2
+ kf = 0.0
+ ntnoi = 1.0
* BSIM4 - Layout Dependent Parasitic Model Parameters
+ dmcg = 0.0
+ dmcgt = 0.0
+ dmdg = 0.0
+ xgw = 0.0
+ xgl = 0.0
+ ngcon = 1.0
* Diode DC IV Parameters
* BSIM4 - Diode DC IV parameters
+ diomod = 1.0
+ njs = 1.2928
+ jss = 0.00275
+ jsws = 6.0e-10
+ xtis = 2.0
+ bvs = 11.9
+ xjbvs = 1.0
+ ijthsrev = 0.1
+ ijthsfwd = 0.1
* Diode and FET Capacitance Parameters
+ tpb = 0.0012287
+ tpbsw = 0.0
+ tpbswg = 0.0
+ tcj = 0.000792
+ tcjsw = 1.0e-5
+ tcjswg = 0.0
+ cgdo = 2.281312791e-10
+ cgso = 2.281312791e-10
+ cgbo = 1.0e-14
+ capmod = 2.0
+ xpart = 0.0
+ cgsl = 2.202975e-11
+ cgdl = 2.202975e-11
+ cf = 1.0e-14
+ clc = 1.0e-7
+ cle = 0.6
+ dlc = 2.11821e-8
+ dwc = 3.48e-9
+ vfbcv = -1.0
+ acde = 0.38008
+ moin = 23.81
+ noff = 3.8661
+ voffcv = -0.16994
+ ngate = 1.0e+23
+ lwc = 0.0
+ llc = 0.0
+ lwlc = 0.0
+ wlc = 0.0
+ wwc = 0.0
+ wwlc = 0.0
* BSIM4 - FET and Diode capacitance parameters
+ ckappas = 0.6
+ cjs = 0.00106130856
+ mjs = 0.42197
+ pbs = 0.7477
+ cjsws = 2.834310656e-11
+ mjsws = 0.001
+ pbsws = 0.1
+ cjswgs = 1.575208208e-10
+ mjswgs = 0.8
+ pbswgs = 0.79644
* Stress Parameters
+ saref = 2.74e-6
+ sbref = 2.74e-6
+ wlod = {0+sky130_fd_pr__nfet_01v8_lvt__wlod_diff}
+ kvth0 = {0+sky130_fd_pr__nfet_01v8_lvt__kvth0_diff}
+ lkvth0 = {0+sky130_fd_pr__nfet_01v8_lvt__lkvth0_diff}
+ wkvth0 = {0+sky130_fd_pr__nfet_01v8_lvt__wkvth0_diff}
+ pkvth0 = 0.0
+ llodvth = 0.0
+ wlodvth = 1.0
+ stk2 = 0.0
+ lodk2 = 1.0
+ lodeta0 = 1.0
+ ku0 = {0+sky130_fd_pr__nfet_01v8_lvt__ku0_diff}
+ lku0 = {0+sky130_fd_pr__nfet_01v8_lvt__lku0_diff}
+ wku0 = {0+sky130_fd_pr__nfet_01v8_lvt__wku0_diff}
+ pku0 = 0.0
+ llodku0 = 0.0
+ wlodku0 = 1.0
+ kvsat = {0+sky130_fd_pr__nfet_01v8_lvt__kvsat_diff}
+ steta0 = 0.0
+ tku0 = 0.0
.model sky130_fd_pr__nfet_01v8_lvt__model.4 nmos
* DC IV MOS Parameters
+ lmin = 5e-07 lmax = 1e-06 wmin = 7e-06 wmax = 1.0e-4
+ level = 54.0
+ tnom = 30.0
+ version = 4.5
+ toxm = 4.148e-9
+ xj = 1.5e-7
+ lln = 1.0
+ lwn = 1.0
+ wln = 1.0
+ wwn = 1.0
+ lint = 2.41525e-8
+ ll = 0.0
+ lw = 0.0
+ lwl = 0.0
+ wint = 3.48e-9
+ wl = 0.0
+ ww = 0.0
+ wwl = 0.0
+ xl = 0.0
+ xw = 0.0
+ mobmod = 0.0
+ binunit = 2.0
+ dwg = -1.33e-8
+ dwb = -1.08e-8
* BSIM4 - Model Selectors
+ igcmod = 0.0
+ igbmod = 0.0
+ rgatemod = 0.0
+ rbodymod = 1.0
+ trnqsmod = 0.0
+ acnqsmod = 0.0
+ fnoimod = 1.0
+ tnoimod = 1.0
+ permod = 1.0
+ geomod = 0.0
+ rdsmod = 0.0
+ tempmod = 0.0
+ lintnoi = -3.0e-7
+ vfbsdoff = 0.0
+ lambda = 0.0
+ vtl = 0.0
+ lc = 0.0
+ xn = 0.0
+ rnoia = 0.912
+ rnoib = 0.26
+ tnoia = 25000000.0
+ tnoib = 9900000.0
* BSIM4 - Process Parameters
+ epsrox = 3.9
+ toxe = {3.996598e-09+sky130_fd_pr__nfet_01v8_lvt__toxe_slope_spectre*(3.996598e-09*(sky130_fd_pr__nfet_01v8_lvt__toxe_slope/sqrt(l*w*mult)))}
+ dtox = 0.0
+ ndep = 1.7000000000000000e+17
+ nsd = 1.0e+20
+ rshg = 0.1
+ rsh = 1.0
* Threshold Voltage Parameters
+ vth0 = {4.424931113e-01+sky130_fd_pr__nfet_01v8_lvt__vth0_slope_spectre*(sky130_fd_pr__nfet_01v8_lvt__vth0_slope/sqrt(l*w*mult))} lvth0 = -7.563863729e-9
+ k1 = 4.336971190e-01 lk1 = -1.805478667e-9
+ k2 = -1.942855901e-02 lk2 = -3.961754960e-9
+ k3 = 1.65
+ dvt0 = 0.07665
+ dvt1 = 0.1252
+ dvt2 = -0.05637
+ dvt0w = 0.0
+ dvt1w = 5300000.0
+ dvt2w = -0.032
+ w0 = 1.0e-7
+ k3b = 1.6
+ vfb = 0.0
* NEW BSIM4 Parameters for Level 54
+ phin = 0.0
+ lpe0 = 2.3802e-7
+ lpeb = -4.9152e-8
+ vbm = -3.0
+ dvtp0 = 0.0
+ dvtp1 = 0.0