* Copyright 2020 The SkyWater PDK Authors
*
* Licensed under the Apache License, Version 2.0 (the "License");
* you may not use this file except in compliance with the License.
* You may obtain a copy of the License at
*
*     https://www.apache.org/licenses/LICENSE-2.0
*
* Unless required by applicable law or agreed to in writing, software
* distributed under the License is distributed on an "AS IS" BASIS,
* WITHOUT WARRANTIES OR CONDITIONS OF ANY KIND, either express or implied.
* See the License for the specific language governing permissions and
* limitations under the License.

* SKY130 Spice File.
.param sky130_fd_pr__pfet_01v8_lvt__toxe_slope_spectre = 0.0
.param sky130_fd_pr__pfet_01v8_lvt__vth0_slope_spectre = 0.0
.param sky130_fd_pr__pfet_01v8_lvt__voff_slope_spectre = 0.0
.param sky130_fd_pr__pfet_01v8_lvt__nfactor_slope_spectre = 0.0
* statistics {
*   process {
*   }
*   mismatch {
*     vary sky130_fd_pr__pfet_01v8_lvt__toxe_slope_spectre dist=gauss std = 1.0
*     vary sky130_fd_pr__pfet_01v8_lvt__vth0_slope_spectre dist=gauss std = 1.0
*     vary sky130_fd_pr__pfet_01v8_lvt__voff_slope_spectre dist=gauss std = 1.0
*     vary sky130_fd_pr__pfet_01v8_lvt__nfactor_slope_spectre dist=gauss std = 1.0
*   }
* }
.subckt  sky130_fd_pr__pfet_01v8_lvt d g s b
+ 
.param  l = 1 w = 1 ad = 0 as = 0 pd = 0 ps = 0 nrd = 0 nrs = 0 sa = 0 sb = 0 sd = 0 mult = 1 nf = 1.0
msky130_fd_pr__pfet_01v8_lvt d g s b sky130_fd_pr__pfet_01v8_lvt__model l = {l} w = {w} ad = {ad} as = {as} pd = {pd} ps = {ps} nrd = {nrd} nrs = {nrs} sa = {sa} sb = {sb} sd = {sd} nf = {nf}
.model sky130_fd_pr__pfet_01v8_lvt__model.0 pmos
* DC IV MOS Parameters
+ lmin = 9.95e-07 lmax = 1.005e-06 wmin = 9.95e-07 wmax = 1.005e-6
+ level = 54.0
+ tnom = 30.0
+ version = 4.5
+ toxm = 4.23e-9
+ xj = 1.5e-7
+ lln = 1.0
+ lwn = 1.0
+ wln = 1.0
+ wwn = 1.0
+ lint = {2.8e-009+sky130_fd_pr__pfet_01v8_lvt__lint_diff}
+ ll = 0.0
+ lw = 0.0
+ lwl = 0.0
+ wint = {7.476e-009+sky130_fd_pr__pfet_01v8_lvt__wint_diff}
+ wl = 0.0
+ ww = 0.0
+ wwl = 0.0
+ xl = 0.0
+ xw = 0.0
+ mobmod = 0.0
+ binunit = 2.0
+ dwg = -7.916e-9
+ dwb = 0.0
* BSIM4 - Model Selectors
+ igcmod = 0.0
+ igbmod = 0.0
+ rgatemod = 0.0
+ rbodymod = 1.0
+ trnqsmod = 0.0
+ acnqsmod = 0.0
+ fnoimod = 1.0
+ tnoimod = 1.0
+ permod = 1.0
+ geomod = 0.0
+ rdsmod = 0.0
+ tempmod = 0.0
+ lintnoi = 0.0
+ vfbsdoff = 0.0
+ lambda = 0.0
+ vtl = 0.0
+ lc = 5.0e-9
+ xn = 3.0
+ rnoia = 0.69
+ rnoib = 0.34
+ tnoia = 25.0e+6
+ tnoib = .0e+6
* BSIM4 - Process Parameters
+ epsrox = 3.9
+ toxe = {4.23e-009*sky130_fd_pr__pfet_01v8_lvt__toxe_mult+sky130_fd_pr__pfet_01v8_lvt__toxe_slope_spectre*(4.23e-09*sky130_fd_pr__pfet_01v8_lvt__toxe_mult*(sky130_fd_pr__pfet_01v8_lvt__toxe_slope/sqrt(l*w*mult)))}
+ dtox = 0.0
+ ndep = 1.7e+17
+ nsd = 1.0e+20
+ rshg = 0.1
+ rsh = {1*sky130_fd_pr__pfet_01v8_lvt__rshp_mult}
* Threshold Voltage Parameters
+ vth0 = {-0.32+sky130_fd_pr__pfet_01v8_lvt__vth0_diff_0+sky130_fd_pr__pfet_01v8_lvt__vth0_slope_spectre*(sky130_fd_pr__pfet_01v8_lvt__vth0_slope/sqrt(l*w*mult))}
+ k1 = 0.64774
+ k2 = {-0.041573+sky130_fd_pr__pfet_01v8_lvt__k2_diff_0}
+ k3 = 3.39
+ dvt0 = 2.4422
+ dvt1 = 0.16136
+ dvt2 = 0.026237
+ dvt0w = 0.5
+ dvt1w = 1928100.0
+ dvt2w = -0.032
+ w0 = 1.0e-8
+ k3b = 1.0
* NEW BSIM4 Parameters for Level 54
+ phin = 0.0
+ lpe0 = 0.0
+ lpeb = 0.0
+ vbm = -3.0
+ dvtp0 = 0.0
+ dvtp1 = 0.0
* Mobility Parameters
+ vsat = {123760+sky130_fd_pr__pfet_01v8_lvt__vsat_diff_0}
+ ua = {-2.8863e-009+sky130_fd_pr__pfet_01v8_lvt__ua_diff_0}
+ ub = {2.9625e-018+sky130_fd_pr__pfet_01v8_lvt__ub_diff_0}
+ uc = 6.4586e-11
+ rdsw = {484.7+sky130_fd_pr__pfet_01v8_lvt__rdsw_diff_0}
+ prwb = 0.1
+ prwg = 0.052
+ wr = 1.0
+ u0 = {0.00265+sky130_fd_pr__pfet_01v8_lvt__u0_diff_0}
+ a0 = {1.3255+sky130_fd_pr__pfet_01v8_lvt__a0_diff_0}
+ keta = {-0.01258+sky130_fd_pr__pfet_01v8_lvt__keta_diff_0}
+ a1 = 0.0
+ a2 = 0.46703705
+ ags = {0.25696+sky130_fd_pr__pfet_01v8_lvt__ags_diff_0}
+ b0 = {0+sky130_fd_pr__pfet_01v8_lvt__b0_diff_0}
+ b1 = {2.1073e-024+sky130_fd_pr__pfet_01v8_lvt__b1_diff_0}
* BSIM4 - Mobility Parameters
+ eu = 1.67
+ rdswmin = 0.0
+ rdw = 0.0
+ rdwmin = 0.0
+ rsw = 0.0
+ rswmin = 0.0
* Subthreshold Current Parameters
+ voff = {-0.1819+sky130_fd_pr__pfet_01v8_lvt__voff_diff_0+sky130_fd_pr__pfet_01v8_lvt__voff_slope_spectre*(sky130_fd_pr__pfet_01v8_lvt__voff_slope/sqrt(l*w*mult))}
+ nfactor = {2.5373+sky130_fd_pr__pfet_01v8_lvt__nfactor_diff_0+sky130_fd_pr__pfet_01v8_lvt__nfactor_slope_spectre*(sky130_fd_pr__pfet_01v8_lvt__nfactor_slope/sqrt(l*w*mult))}
+ tvoff = {0+sky130_fd_pr__pfet_01v8_lvt__tvoff_diff_0}
+ tvfbsdoff = 0.0
+ up = 0.0
+ ud = 0.0
+ lp = 1.0
+ cit = -6.393105e-11
+ cdsc = 2.8125e-7
+ cdscb = 0.0001
+ cdscd = 1.0e-10
+ eta0 = {0.2+sky130_fd_pr__pfet_01v8_lvt__eta0_diff_0}
+ etab = -0.00025
+ dsub = 1.0
* BSIM4 - Sub-threshold parameters
+ voffl = 0.0
+ minv = 0.0
* Rout Parameters
+ pclm = {0.030097+sky130_fd_pr__pfet_01v8_lvt__pclm_diff_0}
+ pdiblc1 = 0.0
+ pdiblc2 = 0.017768
+ pdiblcb = -0.025
+ drout = 0.43496
+ pscbe1 = 8.0e+8
+ pscbe2 = 8.6797e-9
+ pvag = 0.0
+ delta = 0.046757
+ alpha0 = 5.0449517e-13
+ alpha1 = -4.0583656e-18
+ beta0 = 6.2016506
* BSIM4 - Rout Parameters
+ fprout = 0.0
+ pdits = {0+sky130_fd_pr__pfet_01v8_lvt__pdits_diff_0}
+ pditsl = 0.0
+ pditsd = {0+sky130_fd_pr__pfet_01v8_lvt__pditsd_diff_0}
* BSIM4 - Gate Induced Drain Leakage Model Parameters
+ agidl = {0+sky130_fd_pr__pfet_01v8_lvt__agidl_diff_0}
+ bgidl = {2.3e009+sky130_fd_pr__pfet_01v8_lvt__bgidl_diff_0}
+ cgidl = {0.5+sky130_fd_pr__pfet_01v8_lvt__cgidl_diff_0}
+ egidl = 0.8
* BSIM4 - Gate Leakage Current Parameters
+ aigbacc = 0.43
+ bigbacc = 0.054
+ cigbacc = 0.075
+ nigbacc = 1.0
+ aigbinv = 0.35
+ bigbinv = 0.03
+ cigbinv = 0.006
+ eigbinv = 1.1
+ nigbinv = 3.0
+ aigc = 0.43
+ bigc = 0.054
+ cigc = 0.075
+ nigc = 1.0
+ aigsd = 0.43
+ bigsd = 0.054
+ cigsd = 0.075
+ dlcig = 0.0
+ poxedge = 1.0
+ pigcd = 1.0
+ ntox = 1.0
+ toxref = 4.23e-9
* Temperature Effects Parameters
+ kt1 = {-0.61727+sky130_fd_pr__pfet_01v8_lvt__kt1_diff_0}
+ kt2 = -0.035779
+ at = 164410.0
+ ute = -0.15885
+ ua1 = 6.4145e-10
+ ub1 = -1.094e-20
+ uc1 = -9.961e-12
+ kt1l = 0.0
+ prt = 0.0
* BSIM4 - High Speed RF Model Parameters
+ xrcrg1 = 12.0
+ xrcrg2 = 1.0
+ rbpb = 50.0
+ rbpd = 50.0
+ rbps = 50.0
+ rbdb = 50.0
+ rbsb = 50.0
+ gbmin = 1.0e-12
* BSIM4 - Flicker and Thermal Noise Parameters
+ noia = 3.0e+41
+ noib = 0.0
+ noic = 0.0
+ em = 4.1000000e+7
+ af = 1.0
+ ef = 0.88
+ kf = 0.0
+ ntnoi = 1.0
* BSIM4 - Layout Dependent Parasitic Model Parameters
+ dmcg = 0.0
+ dmcgt = 0.0
+ dmdg = 0.0
+ xgw = 0.0
+ xgl = 0.0
+ ngcon = 1.0
* Diode DC IV Parameters
* BSIM4 - Diode DC IV parameters
+ diomod = 1.0
+ njs = 1.3632
+ jss = 2.1483e-5
+ jsws = 1.4472e-10
+ xtis = 5.2
+ bvs = 12.69
+ xjbvs = 1.0
+ ijthsrev = 0.1
+ ijthsfwd = 0.1
* Diode and FET Capacitance Parameters
+ tpb = 0.001671
+ tpbsw = 0.001246
+ tpbswg = 0.0
+ tcj = 0.0012407
+ tcjsw = 0.00037357
+ tcjswg = 2.0e-12
+ cgdo = {1e-010*sky130_fd_pr__pfet_01v8_lvt__overlap_mult}
+ cgso = {1e-010*sky130_fd_pr__pfet_01v8_lvt__overlap_mult}
+ cgbo = 1.0e-13
+ capmod = 2.0
+ xpart = 0.0
+ cgsl = {0*sky130_fd_pr__pfet_01v8_lvt__overlap_mult}
+ cgdl = {0*sky130_fd_pr__pfet_01v8_lvt__overlap_mult}
+ cf = 0.0
+ clc = 7.0e-8
+ cle = 0.492
+ dlc = {0+sky130_fd_pr__pfet_01v8_lvt__dlc_diff+sky130_fd_pr__pfet_01v8_lvt__dlc_rotweak}
+ dwc = {0+sky130_fd_pr__pfet_01v8_lvt__dwc_diff}
+ vfbcv = -1.0
+ acde = 0.44
+ moin = 8.7
+ noff = 2.6123
+ voffcv = 0.112
+ ngate = 1.0e+23
+ lwc = 0.0
+ llc = 0.0
+ lwlc = 0.0
+ wlc = 0.0
+ wwc = 0.0
+ wwlc = 0.0
* BSIM4 - FET and Diode capacitance parameters
+ ckappas = 0.6
+ cjs = {0.00076823*sky130_fd_pr__pfet_01v8_lvt__ajunction_mult}
+ mjs = 0.3362
+ pbs = 0.6587
+ cjsws = {9.152e-011*sky130_fd_pr__pfet_01v8_lvt__pjunction_mult}
+ mjsws = 0.2659
+ pbsws = 0.7418
+ cjswgs = {2.3894e-010*sky130_fd_pr__pfet_01v8_lvt__pjunction_mult}
+ mjswgs = 0.9274
+ pbswgs = 1.4338
* Stress Parameters
+ saref = 2.74e-6
+ sbref = 2.74e-6
+ wlod = {0+sky130_fd_pr__pfet_01v8_lvt__wlod_diff}
+ kvth0 = {0+sky130_fd_pr__pfet_01v8_lvt__kvth0_diff}
+ lkvth0 = {0+sky130_fd_pr__pfet_01v8_lvt__lkvth0_diff}
+ wkvth0 = {0+sky130_fd_pr__pfet_01v8_lvt__wkvth0_diff}
+ pkvth0 = 0.0
+ llodvth = 0.0
+ wlodvth = 1.0
+ stk2 = 0.0
+ lodk2 = 1.0
+ lodeta0 = 1.0
+ ku0 = {0+sky130_fd_pr__pfet_01v8_lvt__ku0_diff}
+ lku0 = {0+sky130_fd_pr__pfet_01v8_lvt__lku0_diff}
+ wku0 = {0+sky130_fd_pr__pfet_01v8_lvt__wku0_diff}
+ pku0 = 0.0
+ llodku0 = 0.0
+ wlodku0 = 1.0
+ kvsat = {0+sky130_fd_pr__pfet_01v8_lvt__kvsat_diff}
+ steta0 = 0.0
+ tku0 = 0.0
.model sky130_fd_pr__pfet_01v8_lvt__model.1 pmos
* DC IV MOS Parameters
+ lmin = 1.995e-06 lmax = 2.005e-06 wmin = 9.95e-07 wmax = 1.005e-6
+ level = 54.0
+ tnom = 30.0
+ version = 4.5
+ toxm = 4.23e-9
+ xj = 1.5e-7
+ lln = 1.0
+ lwn = 1.0
+ wln = 1.0
+ wwn = 1.0
+ lint = {2.8e-009+sky130_fd_pr__pfet_01v8_lvt__lint_diff}
+ ll = 0.0
+ lw = 0.0
+ lwl = 0.0
+ wint = {7.476e-009+sky130_fd_pr__pfet_01v8_lvt__wint_diff}
+ wl = 0.0
+ ww = 0.0
+ wwl = 0.0
+ xl = 0.0
+ xw = 0.0
+ mobmod = 0.0
+ binunit = 2.0
+ dwg = -7.916e-9
+ dwb = 0.0
* BSIM4 - Model Selectors
+ igcmod = 0.0
+ igbmod = 0.0
+ rgatemod = 0.0
+ rbodymod = 1.0
+ trnqsmod = 0.0
+ acnqsmod = 0.0
+ fnoimod = 1.0
+ tnoimod = 1.0
+ permod = 1.0
+ geomod = 0.0
+ rdsmod = 0.0
+ tempmod = 0.0
+ lintnoi = 0.0
+ vfbsdoff = 0.0
+ lambda = 0.0
+ vtl = 0.0
+ lc = 5.0e-9
+ xn = 3.0
+ rnoia = 0.69
+ rnoib = 0.34
+ tnoia = 25.0e+6
+ tnoib = .0e+6
* BSIM4 - Process Parameters
+ epsrox = 3.9
+ toxe = {4.23e-009*sky130_fd_pr__pfet_01v8_lvt__toxe_mult+sky130_fd_pr__pfet_01v8_lvt__toxe_slope_spectre*(4.23e-09*sky130_fd_pr__pfet_01v8_lvt__toxe_mult*(sky130_fd_pr__pfet_01v8_lvt__toxe_slope/sqrt(l*w*mult)))}
+ dtox = 0.0
+ ndep = 1.7e+17
+ nsd = 1.0e+20
+ rshg = 0.1
+ rsh = {1*sky130_fd_pr__pfet_01v8_lvt__rshp_mult}
* Threshold Voltage Parameters
+ vth0 = {-0.38+sky130_fd_pr__pfet_01v8_lvt__vth0_diff_1+sky130_fd_pr__pfet_01v8_lvt__vth0_slope_spectre*(sky130_fd_pr__pfet_01v8_lvt__vth0_slope/sqrt(l*w*mult))}
+ k1 = 0.64774
+ k2 = {-0.041573+sky130_fd_pr__pfet_01v8_lvt__k2_diff_1}
+ k3 = 3.39
+ dvt0 = 2.4422
+ dvt1 = 0.16136
+ dvt2 = 0.026237
+ dvt0w = 0.5
+ dvt1w = 1928100.0
+ dvt2w = -0.032
+ w0 = 1.0e-8
+ k3b = 1.0
* NEW BSIM4 Parameters for Level 54
+ phin = 0.0
+ lpe0 = 0.0
+ lpeb = 0.0
+ vbm = -3.0
+ dvtp0 = 0.0
+ dvtp1 = 0.0
* Mobility Parameters
+ vsat = {123760+sky130_fd_pr__pfet_01v8_lvt__vsat_diff_1}
+ ua = {-2.8863e-009+sky130_fd_pr__pfet_01v8_lvt__ua_diff_1}
+ ub = {2.9625e-018+sky130_fd_pr__pfet_01v8_lvt__ub_diff_1}
+ uc = 6.4586e-11
+ rdsw = {484.7+sky130_fd_pr__pfet_01v8_lvt__rdsw_diff_1}
+ prwb = 0.1
+ prwg = 0.052
+ wr = 1.0
+ u0 = {0.00265+sky130_fd_pr__pfet_01v8_lvt__u0_diff_1}
+ a0 = {1.3662+sky130_fd_pr__pfet_01v8_lvt__a0_diff_1}
+ keta = {-0.01258+sky130_fd_pr__pfet_01v8_lvt__keta_diff_1}
+ a1 = 0.0
+ a2 = 0.46703705
+ ags = {0.25696+sky130_fd_pr__pfet_01v8_lvt__ags_diff_1}
+ b0 = {0+sky130_fd_pr__pfet_01v8_lvt__b0_diff_1}
+ b1 = {2.1073e-024+sky130_fd_pr__pfet_01v8_lvt__b1_diff_1}
* BSIM4 - Mobility Parameters
+ eu = 1.67
+ rdswmin = 0.0
+ rdw = 0.0
+ rdwmin = 0.0
+ rsw = 0.0
+ rswmin = 0.0
* Subthreshold Current Parameters
+ voff = {-0.1819+sky130_fd_pr__pfet_01v8_lvt__voff_diff_1+sky130_fd_pr__pfet_01v8_lvt__voff_slope_spectre*(sky130_fd_pr__pfet_01v8_lvt__voff_slope/sqrt(l*w*mult))}
+ nfactor = {2.5373+sky130_fd_pr__pfet_01v8_lvt__nfactor_diff_1+sky130_fd_pr__pfet_01v8_lvt__nfactor_slope_spectre*(sky130_fd_pr__pfet_01v8_lvt__nfactor_slope/sqrt(l*w*mult))}
+ tvoff = {0+sky130_fd_pr__pfet_01v8_lvt__tvoff_diff_1}
+ tvfbsdoff = 0.0
+ up = 0.0
+ ud = 0.0
+ lp = 1.0
+ cit = -6.393105e-11
+ cdsc = 2.8125e-7
+ cdscb = 0.0001
+ cdscd = 1.0e-10
+ eta0 = {0.2+sky130_fd_pr__pfet_01v8_lvt__eta0_diff_1}
+ etab = -0.00025
+ dsub = 1.0
* BSIM4 - Sub-threshold parameters
+ voffl = 0.0
+ minv = 0.0
* Rout Parameters
+ pclm = {0.030097+sky130_fd_pr__pfet_01v8_lvt__pclm_diff_1}
+ pdiblc1 = 0.0
+ pdiblc2 = 0.0091588
+ pdiblcb = -0.025
+ drout = 0.43496
+ pscbe1 = 8.0e+8
+ pscbe2 = 8.6797e-9
+ pvag = 0.0
+ delta = 0.024056
+ alpha0 = 5.0449517e-13
+ alpha1 = -4.0583656e-18
+ beta0 = 6.2016506
* BSIM4 - Rout Parameters
+ fprout = 0.0
+ pdits = {0+sky130_fd_pr__pfet_01v8_lvt__pdits_diff_1}
+ pditsl = 0.0
+ pditsd = {0+sky130_fd_pr__pfet_01v8_lvt__pditsd_diff_1}
* BSIM4 - Gate Induced Drain Leakage Model Parameters
+ agidl = {0+sky130_fd_pr__pfet_01v8_lvt__agidl_diff_1}
+ bgidl = {2.3e009+sky130_fd_pr__pfet_01v8_lvt__bgidl_diff_1}
+ cgidl = {0.5+sky130_fd_pr__pfet_01v8_lvt__cgidl_diff_1}
+ egidl = 0.8
* BSIM4 - Gate Leakage Current Parameters
+ aigbacc = 0.43
+ bigbacc = 0.054
+ cigbacc = 0.075
+ nigbacc = 1.0
+ aigbinv = 0.35
+ bigbinv = 0.03
+ cigbinv = 0.006
+ eigbinv = 1.1
+ nigbinv = 3.0
+ aigc = 0.43
+ bigc = 0.054
+ cigc = 0.075
+ nigc = 1.0
+ aigsd = 0.43
+ bigsd = 0.054
+ cigsd = 0.075
+ dlcig = 0.0
+ poxedge = 1.0
+ pigcd = 1.0
+ ntox = 1.0
+ toxref = 4.23e-9
* Temperature Effects Parameters
+ kt1 = {-0.59135+sky130_fd_pr__pfet_01v8_lvt__kt1_diff_1}
+ kt2 = -0.055045
+ at = 240100.0
+ ute = -0.15426
+ ua1 = 6.9609e-10
+ ub1 = -1.2188e-19
+ uc1 = -9.961e-12
+ kt1l = 0.0
+ prt = 0.0
* BSIM4 - High Speed RF Model Parameters
+ xrcrg1 = 12.0
+ xrcrg2 = 1.0
+ rbpb = 50.0
+ rbpd = 50.0
+ rbps = 50.0
+ rbdb = 50.0
+ rbsb = 50.0
+ gbmin = 1.0e-12
* BSIM4 - Flicker and Thermal Noise Parameters
+ noia = 3.0e+41
+ noib = 0.0
+ noic = 0.0
+ em = 4.1000000e+7
+ af = 1.0
+ ef = 0.88
+ kf = 0.0
+ ntnoi = 1.0
* BSIM4 - Layout Dependent Parasitic Model Parameters
+ dmcg = 0.0
+ dmcgt = 0.0
+ dmdg = 0.0
+ xgw = 0.0
+ xgl = 0.0
+ ngcon = 1.0
* Diode DC IV Parameters
* BSIM4 - Diode DC IV parameters
+ diomod = 1.0
+ njs = 1.3632
+ jss = 2.1483e-5
+ jsws = 1.4472e-10
+ xtis = 5.2
+ bvs = 12.69
+ xjbvs = 1.0
+ ijthsrev = 0.1
+ ijthsfwd = 0.1
* Diode and FET Capacitance Parameters
+ tpb = 0.001671
+ tpbsw = 0.001246
+ tpbswg = 0.0
+ tcj = 0.0012407
+ tcjsw = 0.00037357
+ tcjswg = 2.0e-12
+ cgdo = {1e-010*sky130_fd_pr__pfet_01v8_lvt__overlap_mult}
+ cgso = {1e-010*sky130_fd_pr__pfet_01v8_lvt__overlap_mult}
+ cgbo = 1.0e-13
+ capmod = 2.0
+ xpart = 0.0
+ cgsl = {0*sky130_fd_pr__pfet_01v8_lvt__overlap_mult}
+ cgdl = {0*sky130_fd_pr__pfet_01v8_lvt__overlap_mult}
+ cf = 0.0
+ clc = 7.0e-8
+ cle = 0.492
+ dlc = {0+sky130_fd_pr__pfet_01v8_lvt__dlc_diff+sky130_fd_pr__pfet_01v8_lvt__dlc_rotweak}
+ dwc = {0+sky130_fd_pr__pfet_01v8_lvt__dwc_diff}
+ vfbcv = -1.0
+ acde = 0.44
+ moin = 8.7
+ noff = 2.6123
+ voffcv = 0.112
+ ngate = 1.0e+23
+ lwc = 0.0
+ llc = 0.0
+ lwlc = 0.0
+ wlc = 0.0
+ wwc = 0.0
+ wwlc = 0.0
* BSIM4 - FET and Diode capacitance parameters
+ ckappas = 0.6
+ cjs = {0.00076823*sky130_fd_pr__pfet_01v8_lvt__ajunction_mult}
+ mjs = 0.3362
+ pbs = 0.6587
+ cjsws = {9.152e-011*sky130_fd_pr__pfet_01v8_lvt__pjunction_mult}
+ mjsws = 0.2659
+ pbsws = 0.7418
+ cjswgs = {2.3894e-010*sky130_fd_pr__pfet_01v8_lvt__pjunction_mult}
+ mjswgs = 0.9274
+ pbswgs = 1.4338
* Stress Parameters
+ saref = 3.0e-6
+ sbref = 3.0e-6
+ wlod = {0+sky130_fd_pr__pfet_01v8_lvt__wlod_diff}
+ kvth0 = {0+sky130_fd_pr__pfet_01v8_lvt__kvth0_diff}
+ lkvth0 = {0+sky130_fd_pr__pfet_01v8_lvt__lkvth0_diff}
+ wkvth0 = {0+sky130_fd_pr__pfet_01v8_lvt__wkvth0_diff}
+ pkvth0 = 0.0
+ llodvth = 0.0
+ wlodvth = 1.0
+ stk2 = 0.0
+ lodk2 = 1.0
+ lodeta0 = 1.0
+ ku0 = {0+sky130_fd_pr__pfet_01v8_lvt__ku0_diff}
+ lku0 = {0+sky130_fd_pr__pfet_01v8_lvt__lku0_diff}
+ wku0 = {0+sky130_fd_pr__pfet_01v8_lvt__wku0_diff}
+ pku0 = 0.0
+ llodku0 = 0.0
+ wlodku0 = 1.0
+ kvsat = {0+sky130_fd_pr__pfet_01v8_lvt__kvsat_diff}
+ steta0 = 0.0
+ tku0 = 0.0
.model sky130_fd_pr__pfet_01v8_lvt__model.2 pmos
* DC IV MOS Parameters
+ lmin = 3.995e-06 lmax = 4.005e-06 wmin = 9.95e-07 wmax = 1.005e-6
+ level = 54.0
+ tnom = 30.0
+ version = 4.5
+ toxm = 4.23e-9
+ xj = 1.5e-7
+ lln = 1.0
+ lwn = 1.0
+ wln = 1.0
+ wwn = 1.0
+ lint = {2.8e-009+sky130_fd_pr__pfet_01v8_lvt__lint_diff}
+ ll = 0.0
+ lw = 0.0
+ lwl = 0.0
+ wint = {7.476e-009+sky130_fd_pr__pfet_01v8_lvt__wint_diff}
+ wl = 0.0
+ ww = 0.0
+ wwl = 0.0
+ xl = 0.0
+ xw = 0.0
+ mobmod = 0.0
+ binunit = 2.0
+ dwg = -7.916e-9
+ dwb = 0.0
* BSIM4 - Model Selectors
+ igcmod = 0.0
+ igbmod = 0.0
+ rgatemod = 0.0
+ rbodymod = 1.0
+ trnqsmod = 0.0
+ acnqsmod = 0.0
+ fnoimod = 1.0
+ tnoimod = 1.0
+ permod = 1.0
+ geomod = 0.0
+ rdsmod = 0.0
+ tempmod = 0.0
+ lintnoi = 0.0
+ vfbsdoff = 0.0
+ lambda = 0.0
+ vtl = 0.0
+ lc = 5.0e-9
+ xn = 3.0
+ rnoia = 0.69
+ rnoib = 0.34
+ tnoia = 25.0e+6
+ tnoib = .0e+6
* BSIM4 - Process Parameters
+ epsrox = 3.9
+ toxe = {4.23e-009*sky130_fd_pr__pfet_01v8_lvt__toxe_mult+sky130_fd_pr__pfet_01v8_lvt__toxe_slope_spectre*(4.23e-09*sky130_fd_pr__pfet_01v8_lvt__toxe_mult*(sky130_fd_pr__pfet_01v8_lvt__toxe_slope/sqrt(l*w*mult)))}
+ dtox = 0.0
+ ndep = 1.7e+17
+ nsd = 1.0e+20
+ rshg = 0.1
+ rsh = {1*sky130_fd_pr__pfet_01v8_lvt__rshp_mult}
* Threshold Voltage Parameters
+ vth0 = {-0.38+sky130_fd_pr__pfet_01v8_lvt__vth0_diff_2+sky130_fd_pr__pfet_01v8_lvt__vth0_slope_spectre*(sky130_fd_pr__pfet_01v8_lvt__vth0_slope/sqrt(l*w*mult))}
+ k1 = 0.64774
+ k2 = {-0.041573+sky130_fd_pr__pfet_01v8_lvt__k2_diff_2}
+ k3 = 3.39
+ dvt0 = 2.4422
+ dvt1 = 0.16136
+ dvt2 = 0.026237
+ dvt0w = 0.5
+ dvt1w = 1928100.0
+ dvt2w = -0.032
+ w0 = 1.0e-8
+ k3b = 1.0
* NEW BSIM4 Parameters for Level 54
+ phin = 0.0
+ lpe0 = 0.0
+ lpeb = 0.0
+ vbm = -3.0
+ dvtp0 = 0.0
+ dvtp1 = 0.0
* Mobility Parameters
+ vsat = {123760+sky130_fd_pr__pfet_01v8_lvt__vsat_diff_2}
+ ua = {-2.9363e-009+sky130_fd_pr__pfet_01v8_lvt__ua_diff_2}
+ ub = {3.023e-018+sky130_fd_pr__pfet_01v8_lvt__ub_diff_2}
+ uc = 6.4586e-11
+ rdsw = {484.7+sky130_fd_pr__pfet_01v8_lvt__rdsw_diff_2}
+ prwb = 0.1
+ prwg = 0.052
+ wr = 1.0
+ u0 = {0.00264+sky130_fd_pr__pfet_01v8_lvt__u0_diff_2}
+ a0 = {1.4534+sky130_fd_pr__pfet_01v8_lvt__a0_diff_2}
+ keta = {-0.01258+sky130_fd_pr__pfet_01v8_lvt__keta_diff_2}
+ a1 = 0.0
+ a2 = 0.46703705
+ ags = {0.25696+sky130_fd_pr__pfet_01v8_lvt__ags_diff_2}
+ b0 = {0+sky130_fd_pr__pfet_01v8_lvt__b0_diff_2}
+ b1 = {2.1073e-024+sky130_fd_pr__pfet_01v8_lvt__b1_diff_2}
* BSIM4 - Mobility Parameters
+ eu = 1.67
+ rdswmin = 0.0
+ rdw = 0.0
+ rdwmin = 0.0
+ rsw = 0.0
+ rswmin = 0.0
* Subthreshold Current Parameters
+ voff = {-0.1819+sky130_fd_pr__pfet_01v8_lvt__voff_diff_2+sky130_fd_pr__pfet_01v8_lvt__voff_slope_spectre*(sky130_fd_pr__pfet_01v8_lvt__voff_slope/sqrt(l*w*mult))}
+ nfactor = {2.5373+sky130_fd_pr__pfet_01v8_lvt__nfactor_diff_2+sky130_fd_pr__pfet_01v8_lvt__nfactor_slope_spectre*(sky130_fd_pr__pfet_01v8_lvt__nfactor_slope/sqrt(l*w*mult))}
+ tvoff = {0+sky130_fd_pr__pfet_01v8_lvt__tvoff_diff_2}
+ tvfbsdoff = 0.0
+ up = 0.0
+ ud = 0.0
+ lp = 1.0
+ cit = -6.393105e-11
+ cdsc = 2.8125e-7
+ cdscb = 0.0001
+ cdscd = 1.0e-10
+ eta0 = {0.2+sky130_fd_pr__pfet_01v8_lvt__eta0_diff_2}
+ etab = -0.00025
+ dsub = 1.0
* BSIM4 - Sub-threshold parameters
+ voffl = 0.0
+ minv = 0.0
* Rout Parameters
+ pclm = {0.030097+sky130_fd_pr__pfet_01v8_lvt__pclm_diff_2}
+ pdiblc1 = 0.0
+ pdiblc2 = 0.0045794
+ pdiblcb = -0.025
+ drout = 0.43496
+ pscbe1 = 8.0e+8
+ pscbe2 = 8.6797e-9
+ pvag = 0.0
+ delta = 0.022652
+ alpha0 = 5.0449517e-13
+ alpha1 = -4.0583656e-18
+ beta0 = 6.2016506
* BSIM4 - Rout Parameters
+ fprout = 0.0
+ pdits = {0+sky130_fd_pr__pfet_01v8_lvt__pdits_diff_2}
+ pditsl = 0.0
+ pditsd = {0+sky130_fd_pr__pfet_01v8_lvt__pditsd_diff_2}
* BSIM4 - Gate Induced Drain Leakage Model Parameters
+ agidl = {0+sky130_fd_pr__pfet_01v8_lvt__agidl_diff_2}
+ bgidl = {2.3e009+sky130_fd_pr__pfet_01v8_lvt__bgidl_diff_2}
+ cgidl = {0.5+sky130_fd_pr__pfet_01v8_lvt__cgidl_diff_2}
+ egidl = 0.8
* BSIM4 - Gate Leakage Current Parameters
+ aigbacc = 0.43
+ bigbacc = 0.054
+ cigbacc = 0.075
+ nigbacc = 1.0
+ aigbinv = 0.35
+ bigbinv = 0.03
+ cigbinv = 0.006
+ eigbinv = 1.1
+ nigbinv = 3.0
+ aigc = 0.43
+ bigc = 0.054
+ cigc = 0.075
+ nigc = 1.0
+ aigsd = 0.43
+ bigsd = 0.054
+ cigsd = 0.075
+ dlcig = 0.0
+ poxedge = 1.0
+ pigcd = 1.0
+ ntox = 1.0
+ toxref = 4.23e-9
* Temperature Effects Parameters
+ kt1 = {-0.59135+sky130_fd_pr__pfet_01v8_lvt__kt1_diff_2}
+ kt2 = -0.055045
+ at = 272010.0
+ ute = -0.13298
+ ua1 = 6.9609e-10
+ ub1 = -7.1909e-20
+ uc1 = -9.961e-12
+ kt1l = 0.0
+ prt = 0.0
* BSIM4 - High Speed RF Model Parameters
+ xrcrg1 = 12.0
+ xrcrg2 = 1.0
+ rbpb = 50.0
+ rbpd = 50.0
+ rbps = 50.0
+ rbdb = 50.0
+ rbsb = 50.0
+ gbmin = 1.0e-12
* BSIM4 - Flicker and Thermal Noise Parameters
+ noia = 3.0e+41
+ noib = 0.0
+ noic = 0.0
+ em = 4.1000000e+7
+ af = 1.0
+ ef = 0.88
+ kf = 0.0
+ ntnoi = 1.0
* BSIM4 - Layout Dependent Parasitic Model Parameters
+ dmcg = 0.0
+ dmcgt = 0.0
+ dmdg = 0.0
+ xgw = 0.0
+ xgl = 0.0
+ ngcon = 1.0
* Diode DC IV Parameters
* BSIM4 - Diode DC IV parameters
+ diomod = 1.0
+ njs = 1.3632
+ jss = 2.1483e-5
+ jsws = 1.4472e-10
+ xtis = 5.2
+ bvs = 12.69
+ xjbvs = 1.0
+ ijthsrev = 0.1
+ ijthsfwd = 0.1
* Diode and FET Capacitance Parameters
+ tpb = 0.001671
+ tpbsw = 0.001246
+ tpbswg = 0.0
+ tcj = 0.0012407
+ tcjsw = 0.00037357
+ tcjswg = 2.0e-12
+ cgdo = {1e-010*sky130_fd_pr__pfet_01v8_lvt__overlap_mult}
+ cgso = {1e-010*sky130_fd_pr__pfet_01v8_lvt__overlap_mult}
+ cgbo = 1.0e-13
+ capmod = 2.0
+ xpart = 0.0
+ cgsl = {0*sky130_fd_pr__pfet_01v8_lvt__overlap_mult}
+ cgdl = {0*sky130_fd_pr__pfet_01v8_lvt__overlap_mult}
+ cf = 0.0
+ clc = 7.0e-8
+ cle = 0.492
+ dlc = {0+sky130_fd_pr__pfet_01v8_lvt__dlc_diff+sky130_fd_pr__pfet_01v8_lvt__dlc_rotweak}
+ dwc = {0+sky130_fd_pr__pfet_01v8_lvt__dwc_diff}
+ vfbcv = -1.0
+ acde = 0.44
+ moin = 8.7
+ noff = 2.6123
+ voffcv = 0.112
+ ngate = 1.0e+23
+ lwc = 0.0
+ llc = 0.0
+ lwlc = 0.0
+ wlc = 0.0
+ wwc = 0.0
+ wwlc = 0.0
* BSIM4 - FET and Diode capacitance parameters
+ ckappas = 0.6
+ cjs = {0.00076823*sky130_fd_pr__pfet_01v8_lvt__ajunction_mult}
+ mjs = 0.3362
+ pbs = 0.6587
+ cjsws = {9.152e-011*sky130_fd_pr__pfet_01v8_lvt__pjunction_mult}
+ mjsws = 0.2659
+ pbsws = 0.7418
+ cjswgs = {2.3894e-010*sky130_fd_pr__pfet_01v8_lvt__pjunction_mult}
+ mjswgs = 0.9274
+ pbswgs = 1.4338
* Stress Parameters
+ saref = 3.0e-6
+ sbref = 3.0e-6
+ wlod = {0+sky130_fd_pr__pfet_01v8_lvt__wlod_diff}
+ kvth0 = {0+sky130_fd_pr__pfet_01v8_lvt__kvth0_diff}
+ lkvth0 = {0+sky130_fd_pr__pfet_01v8_lvt__lkvth0_diff}
+ wkvth0 = {0+sky130_fd_pr__pfet_01v8_lvt__wkvth0_diff}
+ pkvth0 = 0.0
+ llodvth = 0.0
+ wlodvth = 1.0
+ stk2 = 0.0
+ lodk2 = 1.0
+ lodeta0 = 1.0
+ ku0 = {0+sky130_fd_pr__pfet_01v8_lvt__ku0_diff}
+ lku0 = {0+sky130_fd_pr__pfet_01v8_lvt__lku0_diff}
+ wku0 = {0+sky130_fd_pr__pfet_01v8_lvt__wku0_diff}
+ pku0 = 0.0
+ llodku0 = 0.0
+ wlodku0 = 1.0
+ kvsat = {0+sky130_fd_pr__pfet_01v8_lvt__kvsat_diff}
+ steta0 = 0.0
+ tku0 = 0.0
.model sky130_fd_pr__pfet_01v8_lvt__model.3 pmos
* DC IV MOS Parameters
+ lmin = 7.995e-06 lmax = 8.005e-06 wmin = 9.95e-07 wmax = 1.005e-6
+ level = 54.0
+ tnom = 30.0
+ version = 4.5
+ toxm = 4.23e-9
+ xj = 1.5e-7
+ lln = 1.0
+ lwn = 1.0
+ wln = 1.0
+ wwn = 1.0
+ lint = {2.8e-009+sky130_fd_pr__pfet_01v8_lvt__lint_diff}
+ ll = 0.0
+ lw = 0.0
+ lwl = 0.0
+ wint = {7.476e-009+sky130_fd_pr__pfet_01v8_lvt__wint_diff}
+ wl = 0.0
+ ww = 0.0
+ wwl = 0.0
+ xl = 0.0
+ xw = 0.0
+ mobmod = 0.0
+ binunit = 2.0
+ dwg = -7.916e-9
+ dwb = 0.0
* BSIM4 - Model Selectors
+ igcmod = 0.0
+ igbmod = 0.0
+ rgatemod = 0.0
+ rbodymod = 1.0
+ trnqsmod = 0.0
+ acnqsmod = 0.0
+ fnoimod = 1.0
+ tnoimod = 1.0
+ permod = 1.0
+ geomod = 0.0
+ rdsmod = 0.0
+ tempmod = 0.0
+ lintnoi = 0.0
+ vfbsdoff = 0.0
+ lambda = 0.0
+ vtl = 0.0
+ lc = 5.0e-9
+ xn = 3.0
+ rnoia = 0.69
+ rnoib = 0.34
+ tnoia = 25.0e+6
+ tnoib = .0e+6
* BSIM4 - Process Parameters
+ epsrox = 3.9
+ toxe = {4.23e-009*sky130_fd_pr__pfet_01v8_lvt__toxe_mult+sky130_fd_pr__pfet_01v8_lvt__toxe_slope_spectre*(4.23e-09*sky130_fd_pr__pfet_01v8_lvt__toxe_mult*(sky130_fd_pr__pfet_01v8_lvt__toxe_slope/sqrt(l*w*mult)))}
+ dtox = 0.0
+ ndep = 1.7e+17
+ nsd = 1.0e+20
+ rshg = 0.1
+ rsh = {1*sky130_fd_pr__pfet_01v8_lvt__rshp_mult}
* Threshold Voltage Parameters
+ vth0 = {-0.38+sky130_fd_pr__pfet_01v8_lvt__vth0_diff_3+sky130_fd_pr__pfet_01v8_lvt__vth0_slope_spectre*(sky130_fd_pr__pfet_01v8_lvt__vth0_slope/sqrt(l*w*mult))}
+ k1 = 0.64774
+ k2 = {-0.037416+sky130_fd_pr__pfet_01v8_lvt__k2_diff_3}
+ k3 = 3.39
+ dvt0 = 2.4422
+ dvt1 = 0.16136
+ dvt2 = 0.026237
+ dvt0w = 0.5
+ dvt1w = 1928100.0
+ dvt2w = -0.032
+ w0 = 1.0e-8
+ k3b = 1.0
* NEW BSIM4 Parameters for Level 54
+ phin = 0.0
+ lpe0 = 0.0
+ lpeb = 0.0
+ vbm = -3.0
+ dvtp0 = 0.0
+ dvtp1 = 0.0
* Mobility Parameters
+ vsat = {123760+sky130_fd_pr__pfet_01v8_lvt__vsat_diff_3}
+ ua = {-2.8863e-009+sky130_fd_pr__pfet_01v8_lvt__ua_diff_3}
+ ub = {2.94e-018+sky130_fd_pr__pfet_01v8_lvt__ub_diff_3}
+ uc = 6.4586e-11
+ rdsw = {484.7+sky130_fd_pr__pfet_01v8_lvt__rdsw_diff_3}
+ prwb = 0.1
+ prwg = 0.052
+ wr = 1.0
+ u0 = {0.00254+sky130_fd_pr__pfet_01v8_lvt__u0_diff_3}
+ a0 = {1.3813+sky130_fd_pr__pfet_01v8_lvt__a0_diff_3}
+ keta = {-0.01258+sky130_fd_pr__pfet_01v8_lvt__keta_diff_3}
+ a1 = 0.0
+ a2 = 0.46703705
+ ags = {0.15932+sky130_fd_pr__pfet_01v8_lvt__ags_diff_3}
+ b0 = {0+sky130_fd_pr__pfet_01v8_lvt__b0_diff_3}
+ b1 = {2.1073e-024+sky130_fd_pr__pfet_01v8_lvt__b1_diff_3}
* BSIM4 - Mobility Parameters
+ eu = 1.67
+ rdswmin = 0.0
+ rdw = 0.0
+ rdwmin = 0.0
+ rsw = 0.0
+ rswmin = 0.0
* Subthreshold Current Parameters
+ voff = {-0.1819+sky130_fd_pr__pfet_01v8_lvt__voff_diff_3+sky130_fd_pr__pfet_01v8_lvt__voff_slope_spectre*(sky130_fd_pr__pfet_01v8_lvt__voff_slope/sqrt(l*w*mult))}
+ nfactor = {2.5373+sky130_fd_pr__pfet_01v8_lvt__nfactor_diff_3+sky130_fd_pr__pfet_01v8_lvt__nfactor_slope_spectre*(sky130_fd_pr__pfet_01v8_lvt__nfactor_slope/sqrt(l*w*mult))}
+ tvoff = {0+sky130_fd_pr__pfet_01v8_lvt__tvoff_diff_3}
+ tvfbsdoff = 0.0
+ up = 0.0
+ ud = 0.0
+ lp = 1.0
+ cit = -6.393105e-11
+ cdsc = 2.8125e-7
+ cdscb = 0.0001
+ cdscd = 1.0e-10
+ eta0 = {0.2+sky130_fd_pr__pfet_01v8_lvt__eta0_diff_3}
+ etab = -0.00025
+ dsub = 1.0
* BSIM4 - Sub-threshold parameters
+ voffl = 0.0
+ minv = 0.0
* Rout Parameters
+ pclm = {0.030097+sky130_fd_pr__pfet_01v8_lvt__pclm_diff_3}
+ pdiblc1 = 0.0
+ pdiblc2 = 0.0013922
+ pdiblcb = -0.025
+ drout = 0.43496
+ pscbe1 = 8.0e+8
+ pscbe2 = 8.6797e-9
+ pvag = 0.0
+ delta = 0.012907
+ alpha0 = 5.0449517e-13
+ alpha1 = -4.0583656e-18
+ beta0 = 6.2016506
* BSIM4 - Rout Parameters
+ fprout = 0.0
+ pdits = {0+sky130_fd_pr__pfet_01v8_lvt__pdits_diff_3}
+ pditsl = 0.0
+ pditsd = {0+sky130_fd_pr__pfet_01v8_lvt__pditsd_diff_3}
* BSIM4 - Gate Induced Drain Leakage Model Parameters
+ agidl = {0+sky130_fd_pr__pfet_01v8_lvt__agidl_diff_3}
+ bgidl = {2.3e009+sky130_fd_pr__pfet_01v8_lvt__bgidl_diff_3}
+ cgidl = {0.5+sky130_fd_pr__pfet_01v8_lvt__cgidl_diff_3}
+ egidl = 0.8
* BSIM4 - Gate Leakage Current Parameters
+ aigbacc = 0.43
+ bigbacc = 0.054
+ cigbacc = 0.075
+ nigbacc = 1.0
+ aigbinv = 0.35
+ bigbinv = 0.03
+ cigbinv = 0.006
+ eigbinv = 1.1
+ nigbinv = 3.0
+ aigc = 0.43
+ bigc = 0.054
+ cigc = 0.075
+ nigc = 1.0
+ aigsd = 0.43
+ bigsd = 0.054
+ cigsd = 0.075
+ dlcig = 0.0
+ poxedge = 1.0
+ pigcd = 1.0
+ ntox = 1.0
+ toxref = 4.23e-9
* Temperature Effects Parameters
+ kt1 = {-0.62135+sky130_fd_pr__pfet_01v8_lvt__kt1_diff_3}
+ kt2 = -0.055045
+ at = 274260.0
+ ute = -0.29175
+ ua1 = 6.8217e-10
+ ub1 = -1.5013e-19
+ uc1 = -9.961e-12
+ kt1l = 0.0
+ prt = 0.0
* BSIM4 - High Speed RF Model Parameters
+ xrcrg1 = 12.0
+ xrcrg2 = 1.0
+ rbpb = 50.0
+ rbpd = 50.0
+ rbps = 50.0
+ rbdb = 50.0
+ rbsb = 50.0
+ gbmin = 1.0e-12
* BSIM4 - Flicker and Thermal Noise Parameters
+ noia = 3.0e+41
+ noib = 0.0
+ noic = 0.0
+ em = 4.1000000e+7
+ af = 1.0
+ ef = 0.88
+ kf = 0.0
+ ntnoi = 1.0
* BSIM4 - Layout Dependent Parasitic Model Parameters
+ dmcg = 0.0
+ dmcgt = 0.0
+ dmdg = 0.0
+ xgw = 0.0
+ xgl = 0.0
+ ngcon = 1.0
* Diode DC IV Parameters
* BSIM4 - Diode DC IV parameters
+ diomod = 1.0
+ njs = 1.3632
+ jss = 2.1483e-5
+ jsws = 1.4472e-10
+ xtis = 5.2
+ bvs = 12.69
+ xjbvs = 1.0
+ ijthsrev = 0.1
+ ijthsfwd = 0.1
* Diode and FET Capacitance Parameters
+ tpb = 0.001671
+ tpbsw = 0.001246
+ tpbswg = 0.0
+ tcj = 0.0012407
+ tcjsw = 0.00037357
+ tcjswg = 2.0e-12
+ cgdo = {1e-010*sky130_fd_pr__pfet_01v8_lvt__overlap_mult}
+ cgso = {1e-010*sky130_fd_pr__pfet_01v8_lvt__overlap_mult}
+ cgbo = 1.0e-13
+ capmod = 2.0
+ xpart = 0.0
+ cgsl = {0*sky130_fd_pr__pfet_01v8_lvt__overlap_mult}
+ cgdl = {0*sky130_fd_pr__pfet_01v8_lvt__overlap_mult}
+ cf = 0.0
+ clc = 7.0e-8
+ cle = 0.492
+ dlc = {0+sky130_fd_pr__pfet_01v8_lvt__dlc_diff+sky130_fd_pr__pfet_01v8_lvt__dlc_rotweak}
+ dwc = {0+sky130_fd_pr__pfet_01v8_lvt__dwc_diff}
+ vfbcv = -1.0
+ acde = 0.44
+ moin = 8.7
+ noff = 2.6123
+ voffcv = 0.112
+ ngate = 1.0e+23
+ lwc = 0.0
+ llc = 0.0
+ lwlc = 0.0
+ wlc = 0.0
+ wwc = 0.0
+ wwlc = 0.0
* BSIM4 - FET and Diode capacitance parameters
+ ckappas = 0.6
+ cjs = {0.00076823*sky130_fd_pr__pfet_01v8_lvt__ajunction_mult}
+ mjs = 0.3362
+ pbs = 0.6587
+ cjsws = {9.152e-011*sky130_fd_pr__pfet_01v8_lvt__pjunction_mult}
+ mjsws = 0.2659
+ pbsws = 0.7418
+ cjswgs = {2.3894e-010*sky130_fd_pr__pfet_01v8_lvt__pjunction_mult}
+ mjswgs = 0.9274
+ pbswgs = 1.4338
* Stress Parameters
+ saref = 3.0e-6
+ sbref = 3.0e-6
+ wlod = {0+sky130_fd_pr__pfet_01v8_lvt__wlod_diff}
+ kvth0 = {0+sky130_fd_pr__pfet_01v8_lvt__kvth0_diff}
+ lkvth0 = {0+sky130_fd_pr__pfet_01v8_lvt__lkvth0_diff}
+ wkvth0 = {0+sky130_fd_pr__pfet_01v8_lvt__wkvth0_diff}
+ pkvth0 = 0.0
+ llodvth = 0.0
+ wlodvth = 1.0
+ stk2 = 0.0
+ lodk2 = 1.0
+ lodeta0 = 1.0
+ ku0 = {0+sky130_fd_pr__pfet_01v8_lvt__ku0_diff}
+ lku0 = {0+sky130_fd_pr__pfet_01v8_lvt__lku0_diff}
+ wku0 = {0+sky130_fd_pr__pfet_01v8_lvt__wku0_diff}
+ pku0 = 0.0
+ llodku0 = 0.0
+ wlodku0 = 1.0
+ kvsat = {0+sky130_fd_pr__pfet_01v8_lvt__kvsat_diff}
+ steta0 = 0.0
+ tku0 = 0.0
.model sky130_fd_pr__pfet_01v8_lvt__model.4 pmos
* DC IV MOS Parameters
+ lmin = 3.45e-07 lmax = 3.55e-07 wmin = 9.95e-07 wmax = 1.005e-6
+ level = 54.0
+ tnom = 30.0
+ version = 4.5
+ toxm = 4.23e-9
+ xj = 1.5e-7
+ lln = 1.0
+ lwn = 1.0
+ wln = 1.0
+ wwn = 1.0