* Copyright 2020 The SkyWater PDK Authors
*
* Licensed under the Apache License, Version 2.0 (the "License");
* you may not use this file except in compliance with the License.
* You may obtain a copy of the License at
*
*     https://www.apache.org/licenses/LICENSE-2.0
*
* Unless required by applicable law or agreed to in writing, software
* distributed under the License is distributed on an "AS IS" BASIS,
* WITHOUT WARRANTIES OR CONDITIONS OF ANY KIND, either express or implied.
* See the License for the specific language governing permissions and
* limitations under the License.

* SKY130 Spice File.
.param sky130_fd_pr__pfet_01v8_lvt__toxe_slope_spectre = 0.0
.param sky130_fd_pr__pfet_01v8_lvt__vth0_slope_spectre = 0.0
.param sky130_fd_pr__pfet_01v8_lvt__voff_slope_spectre = 0.0
.param sky130_fd_pr__pfet_01v8_lvt__nfactor_slope_spectre = 0.0
* statistics {
*   process {
*   }
*   mismatch {
*     vary sky130_fd_pr__pfet_01v8_lvt__toxe_slope_spectre dist=gauss std = 1.0
*     vary sky130_fd_pr__pfet_01v8_lvt__vth0_slope_spectre dist=gauss std = 1.0
*     vary sky130_fd_pr__pfet_01v8_lvt__voff_slope_spectre dist=gauss std = 1.0
*     vary sky130_fd_pr__pfet_01v8_lvt__nfactor_slope_spectre dist=gauss std = 1.0
*   }
* }
.subckt  sky130_fd_pr__pfet_01v8_lvt d g s b
+ 
.param  l = 1 w = 1 ad = 0 as = 0 pd = 0 ps = 0 nrd = 0 nrs = 0 sa = 0 sb = 0 sd = 0 mult = 1 nf = 1.0
msky130_fd_pr__pfet_01v8_lvt d g s b sky130_fd_pr__pfet_01v8_lvt__model l = {l} w = {w} ad = {ad} as = {as} pd = {pd} ps = {ps} nrd = {nrd} nrs = {nrs} sa = {sa} sb = {sb} sd = {sd} nf = {nf}
.model sky130_fd_pr__pfet_01v8_lvt__model.0 pmos
* DC IV MOS Parameters
+ lmin = 2.0e-05 lmax = 1.0e-04 wmin = 7e-06 wmax = 1.0e-4
+ level = 54.0
+ tnom = 30.0
+ version = 4.5
+ toxm = 4.23e-9
+ xj = 1.5e-7
+ lln = 1.0
+ lwn = 1.0
+ wln = 1.0
+ wwn = 1.0
+ lint = 2.8e-9
+ ll = 0.0
+ lw = 0.0
+ lwl = 0.0
+ wint = 7.476e-9
+ wl = 0.0
+ ww = 0.0
+ wwl = 0.0
+ xl = 0.0
+ xw = 0.0
+ mobmod = 0.0
+ binunit = 2.0
+ dwg = -7.916e-9
+ dwb = 0.0
* BSIM4 - Model Selectors
+ igcmod = 0.0
+ igbmod = 0.0
+ rgatemod = 0.0
+ rbodymod = 1.0
+ trnqsmod = 0.0
+ acnqsmod = 0.0
+ fnoimod = 1.0
+ tnoimod = 1.0
+ permod = 1.0
+ geomod = 0.0
+ rdsmod = 0.0
+ tempmod = 0.0
+ lintnoi = 0.0
+ vfbsdoff = 0.0
+ lambda = 0.0
+ vtl = 0.0
+ lc = 5.0e-9
+ xn = 3.0
+ rnoia = 0.69
+ rnoib = 0.34
+ tnoia = 25000000.0
+ tnoib = 0.0
* BSIM4 - Process Parameters
+ epsrox = 3.9
+ toxe = {4.23e-09+sky130_fd_pr__pfet_01v8_lvt__toxe_slope_spectre*(4.23e-09*(sky130_fd_pr__pfet_01v8_lvt__toxe_slope/sqrt(l*w*mult)))}
+ dtox = 0.0
+ ndep = 1.7000000000000000e+17
+ nsd = 1.0e+20
+ rshg = 0.1
+ rsh = 1.0
* Threshold Voltage Parameters
+ vth0 = {-0.450452+sky130_fd_pr__pfet_01v8_lvt__vth0_slope_spectre*(sky130_fd_pr__pfet_01v8_lvt__vth0_slope/sqrt(l*w*mult))}
+ k1 = 0.64774
+ k2 = -0.0458948
+ k3 = 3.39
+ dvt0 = 2.4422
+ dvt1 = 0.16136
+ dvt2 = 0.026237
+ dvt0w = 0.5
+ dvt1w = 1928100.0
+ dvt2w = -0.032
+ w0 = 1.0e-8
+ k3b = 1.0
* NEW BSIM4 Parameters for Level 54
+ phin = 0.0
+ lpe0 = 0.0
+ lpeb = 0.0
+ vbm = -3.0
+ dvtp0 = 0.0
+ dvtp1 = 0.0
* Mobility Parameters
+ vsat = 123760.0
+ ua = -3.0054e-9
+ ub = 3.0419e-18
+ uc = 4.9353e-11
+ rdsw = 484.7
+ prwb = 0.1
+ prwg = 0.052
+ wr = 1.0
+ u0 = 0.0025272667
+ a0 = 1.78166
+ keta = -0.01258
+ a1 = 0.0
+ a2 = 0.46703705
+ ags = 0.390807
+ b0 = 0.0
+ b1 = 2.1073e-24
* BSIM4 - Mobility Parameters
+ eu = 1.67
+ rdswmin = 0.0
+ rdw = 0.0
+ rdwmin = 0.0
+ rsw = 0.0
+ rswmin = 0.0
* Subthreshold Current Parameters
+ voff = {-0.1819+sky130_fd_pr__pfet_01v8_lvt__voff_slope_spectre*(sky130_fd_pr__pfet_01v8_lvt__voff_slope/sqrt(l*w*mult))}
+ nfactor = {3.9789+sky130_fd_pr__pfet_01v8_lvt__nfactor_slope_spectre*(sky130_fd_pr__pfet_01v8_lvt__nfactor_slope/sqrt(l*w*mult))}
+ up = 0.0
+ ud = 0.0
+ lp = 1.0
+ tvfbsdoff = 0.0
+ tvoff = 0.0
+ cit = -6.393105e-11
+ cdsc = 2.8125e-7
+ cdscb = 1.0e-4
+ cdscd = 1.0e-10
+ eta0 = 0.2
+ etab = -0.00025
+ dsub = 1.0
* BSIM4 - Sub-threshold parameters
+ voffl = 0.0
+ minv = 0.0
* Rout Parameters
+ pclm = 0.030097
+ pdiblc1 = 0.0
+ pdiblc2 = 0.0018466
+ pdiblcb = -0.025
+ drout = 0.43496
+ pscbe1 = 800000000.0
+ pscbe2 = 8.6797e-9
+ pvag = 0.0
+ delta = 0.01363
+ alpha0 = 5.0449517e-13
+ alpha1 = -4.0583656e-18
+ beta0 = 6.2016506
* BSIM4 - Rout Parameters
+ fprout = 0.0
+ pdits = 0.0
+ pditsl = 0.0
+ pditsd = 0.0
* BSIM4 - Gate Induced Drain Leakage Model Parameters
+ agidl = 0.0
+ bgidl = 2300000000.0
+ cgidl = 0.5
+ egidl = 0.8
* BSIM4 - Gate Leakage Current Parameters
+ aigbacc = 0.43
+ bigbacc = 0.054
+ cigbacc = 0.075
+ nigbacc = 1.0
+ aigbinv = 0.35
+ bigbinv = 0.03
+ cigbinv = 0.006
+ eigbinv = 1.1
+ nigbinv = 3.0
+ aigc = 0.43
+ bigc = 0.054
+ cigc = 0.075
+ nigc = 1.0
+ aigsd = 0.43
+ bigsd = 0.054
+ cigsd = 0.075
+ dlcig = 0.0
+ poxedge = 1.0
+ pigcd = 1.0
+ ntox = 1.0
+ toxref = 4.23e-9
* Temperature Effects Parameters
+ kt1 = -1.07085
+ kt2 = -0.055045
+ at = 285600.0
+ ute = -0.22271
+ ua1 = 6.8217e-10
+ ub1 = -1.4864e-19
+ uc1 = -9.961e-12
+ kt1l = 0.0
+ prt = 0.0
* BSIM4 - High Speed RF Model Parameters
+ xrcrg1 = 12.0
+ xrcrg2 = 1.0
+ rbpb = 50.0
+ rbpd = 50.0
+ rbps = 50.0
+ rbdb = 50.0
+ rbsb = 50.0
+ gbmin = 1.0e-12
* BSIM4 - Flicker and Thermal Noise Parameters
+ noia = 3.0e+41
+ noib = 0.0
+ noic = 0.0
+ em = 41000000.0
+ af = 1.0
+ ef = 0.88
+ kf = 0.0
+ ntnoi = 1.0
* BSIM4 - Layout Dependent Parasitic Model Parameters
+ dmcg = 0.0
+ dmcgt = 0.0
+ dmdg = 0.0
+ xgw = 0.0
+ xgl = 0.0
+ ngcon = 1.0
* Diode DC IV Parameters
* BSIM4 - Diode DC IV parameters
+ diomod = 1.0
+ njs = 1.3632
+ jss = 2.1483e-5
+ jsws = 1.4472e-10
+ xtis = 5.2
+ bvs = 12.69
+ xjbvs = 1.0
+ ijthsrev = 0.1
+ ijthsfwd = 0.1
* Diode and FET Capacitance Parameters
+ tpb = 0.001671
+ tpbsw = 0.001246
+ tpbswg = 0.0
+ tcj = 0.0012407
+ tcjsw = 0.00037357
+ tcjswg = 2.0e-12
+ cgdo = 2.0e-11
+ cgso = 2.0e-11
+ cgbo = 1.0e-13
+ capmod = 2.0
+ xpart = 0.0
+ cgsl = 0.0
+ cgdl = 0.0
+ cf = 0.0
+ clc = 7.0e-8
+ cle = 0.492
+ dlc = -1.2e-8
+ dwc = 0.0
+ vfbcv = -1.0
+ acde = 0.44
+ moin = 8.7
+ noff = 2.6123
+ voffcv = 0.112
+ ngate = 1.0e+23
+ lwc = 0.0
+ llc = 0.0
+ lwlc = 0.0
+ wlc = 0.0
+ wwc = 0.0
+ wwlc = 0.0
* BSIM4 - FET and Diode capacitance parameters
+ ckappas = 0.6
+ cjs = 0.0007653568198
+ mjs = 0.3362
+ pbs = 0.6587
+ cjsws = 9.1602368e-11
+ mjsws = 0.2659
+ pbsws = 0.7418
+ cjswgs = 2.39155046e-10
+ mjswgs = 0.9274
+ pbswgs = 1.4338
* Stress Parameters
+ saref = 3.0e-6
+ sbref = 3.0e-6
+ wlod = {0+sky130_fd_pr__pfet_01v8_lvt__wlod_diff}
+ kvth0 = {0+sky130_fd_pr__pfet_01v8_lvt__kvth0_diff}
+ lkvth0 = {0+sky130_fd_pr__pfet_01v8_lvt__lkvth0_diff}
+ wkvth0 = {0+sky130_fd_pr__pfet_01v8_lvt__wkvth0_diff}
+ pkvth0 = 0.0
+ llodvth = 0.0
+ wlodvth = 1.0
+ stk2 = 0.0
+ lodk2 = 1.0
+ lodeta0 = 1.0
+ ku0 = {0+sky130_fd_pr__pfet_01v8_lvt__ku0_diff}
+ lku0 = {0+sky130_fd_pr__pfet_01v8_lvt__lku0_diff}
+ wku0 = {0+sky130_fd_pr__pfet_01v8_lvt__wku0_diff}
+ pku0 = 0.0
+ llodku0 = 0.0
+ wlodku0 = 1.0
+ kvsat = {0+sky130_fd_pr__pfet_01v8_lvt__kvsat_diff}
+ steta0 = 0.0
+ tku0 = 0.0
.model sky130_fd_pr__pfet_01v8_lvt__model.1 pmos
* DC IV MOS Parameters
+ lmin = 8e-06 lmax = 2.0e-05 wmin = 7e-06 wmax = 1.0e-4
+ level = 54.0
+ tnom = 30.0
+ version = 4.5
+ toxm = 4.23e-9
+ xj = 1.5e-7
+ lln = 1.0
+ lwn = 1.0
+ wln = 1.0
+ wwn = 1.0
+ lint = 2.8e-9
+ ll = 0.0
+ lw = 0.0
+ lwl = 0.0
+ wint = 7.476e-9
+ wl = 0.0
+ ww = 0.0
+ wwl = 0.0
+ xl = 0.0
+ xw = 0.0
+ mobmod = 0.0
+ binunit = 2.0
+ dwg = -7.916e-9
+ dwb = 0.0
* BSIM4 - Model Selectors
+ igcmod = 0.0
+ igbmod = 0.0
+ rgatemod = 0.0
+ rbodymod = 1.0
+ trnqsmod = 0.0
+ acnqsmod = 0.0
+ fnoimod = 1.0
+ tnoimod = 1.0
+ permod = 1.0
+ geomod = 0.0
+ rdsmod = 0.0
+ tempmod = 0.0
+ lintnoi = 0.0
+ vfbsdoff = 0.0
+ lambda = 0.0
+ vtl = 0.0
+ lc = 5.0e-9
+ xn = 3.0
+ rnoia = 0.69
+ rnoib = 0.34
+ tnoia = 25000000.0
+ tnoib = 0.0
* BSIM4 - Process Parameters
+ epsrox = 3.9
+ toxe = {4.23e-09+sky130_fd_pr__pfet_01v8_lvt__toxe_slope_spectre*(4.23e-09*(sky130_fd_pr__pfet_01v8_lvt__toxe_slope/sqrt(l*w*mult)))}
+ dtox = 0.0
+ ndep = 1.7000000000000000e+17
+ nsd = 1.0e+20
+ rshg = 0.1
+ rsh = 1.0
* Threshold Voltage Parameters
+ vth0 = {-0.450452+sky130_fd_pr__pfet_01v8_lvt__vth0_slope_spectre*(sky130_fd_pr__pfet_01v8_lvt__vth0_slope/sqrt(l*w*mult))}
+ k1 = 0.64774
+ k2 = -0.0458948
+ k3 = 3.39
+ dvt0 = 2.4422
+ dvt1 = 0.16136
+ dvt2 = 0.026237
+ dvt0w = 0.5
+ dvt1w = 1928100.0
+ dvt2w = -0.032
+ w0 = 1.0e-8
+ k3b = 1.0
* NEW BSIM4 Parameters for Level 54
+ phin = 0.0
+ lpe0 = 0.0
+ lpeb = 0.0
+ vbm = -3.0
+ dvtp0 = 0.0
+ dvtp1 = 0.0
* Mobility Parameters
+ vsat = 123760.0
+ ua = -3.0054e-9
+ ub = 3.0419e-18
+ uc = 4.9353e-11
+ rdsw = 484.7
+ prwb = 0.1
+ prwg = 0.052
+ wr = 1.0
+ u0 = 0.0025272667
+ a0 = 1.78166
+ keta = -0.01258
+ a1 = 0.0
+ a2 = 0.46703705
+ ags = 0.390807
+ b0 = 0.0
+ b1 = 2.1073e-24
* BSIM4 - Mobility Parameters
+ eu = 1.67
+ rdswmin = 0.0
+ rdw = 0.0
+ rdwmin = 0.0
+ rsw = 0.0
+ rswmin = 0.0
* Subthreshold Current Parameters
+ voff = {-0.1819+sky130_fd_pr__pfet_01v8_lvt__voff_slope_spectre*(sky130_fd_pr__pfet_01v8_lvt__voff_slope/sqrt(l*w*mult))}
+ nfactor = {3.9789+sky130_fd_pr__pfet_01v8_lvt__nfactor_slope_spectre*(sky130_fd_pr__pfet_01v8_lvt__nfactor_slope/sqrt(l*w*mult))}
+ up = 0.0
+ ud = 0.0
+ lp = 1.0
+ tvfbsdoff = 0.0
+ tvoff = 0.0
+ cit = -6.393105e-11
+ cdsc = 2.8125e-7
+ cdscb = 1.0e-4
+ cdscd = 1.0e-10
+ eta0 = 0.2
+ etab = -0.00025
+ dsub = 1.0
* BSIM4 - Sub-threshold parameters
+ voffl = 0.0
+ minv = 0.0
* Rout Parameters
+ pclm = 0.030097
+ pdiblc1 = 0.0
+ pdiblc2 = 0.0018466
+ pdiblcb = -0.025
+ drout = 0.43496
+ pscbe1 = 800000000.0
+ pscbe2 = 8.6797e-9
+ pvag = 0.0
+ delta = 0.01363
+ alpha0 = 5.0449517e-13
+ alpha1 = -4.0583656e-18
+ beta0 = 6.2016506
* BSIM4 - Rout Parameters
+ fprout = 0.0
+ pdits = 0.0
+ pditsl = 0.0
+ pditsd = 0.0
* BSIM4 - Gate Induced Drain Leakage Model Parameters
+ agidl = 0.0
+ bgidl = 2300000000.0
+ cgidl = 0.5
+ egidl = 0.8
* BSIM4 - Gate Leakage Current Parameters
+ aigbacc = 0.43
+ bigbacc = 0.054
+ cigbacc = 0.075
+ nigbacc = 1.0
+ aigbinv = 0.35
+ bigbinv = 0.03
+ cigbinv = 0.006
+ eigbinv = 1.1
+ nigbinv = 3.0
+ aigc = 0.43
+ bigc = 0.054
+ cigc = 0.075
+ nigc = 1.0
+ aigsd = 0.43
+ bigsd = 0.054
+ cigsd = 0.075
+ dlcig = 0.0
+ poxedge = 1.0
+ pigcd = 1.0
+ ntox = 1.0
+ toxref = 4.23e-9
* Temperature Effects Parameters
+ kt1 = -1.07085
+ kt2 = -0.055045
+ at = 285600.0
+ ute = -0.22271
+ ua1 = 6.8217e-10
+ ub1 = -1.4864e-19
+ uc1 = -9.961e-12
+ kt1l = 0.0
+ prt = 0.0
* BSIM4 - High Speed RF Model Parameters
+ xrcrg1 = 12.0
+ xrcrg2 = 1.0
+ rbpb = 50.0
+ rbpd = 50.0
+ rbps = 50.0
+ rbdb = 50.0
+ rbsb = 50.0
+ gbmin = 1.0e-12
* BSIM4 - Flicker and Thermal Noise Parameters
+ noia = 3.0e+41
+ noib = 0.0
+ noic = 0.0
+ em = 41000000.0
+ af = 1.0
+ ef = 0.88
+ kf = 0.0
+ ntnoi = 1.0
* BSIM4 - Layout Dependent Parasitic Model Parameters
+ dmcg = 0.0
+ dmcgt = 0.0
+ dmdg = 0.0
+ xgw = 0.0
+ xgl = 0.0
+ ngcon = 1.0
* Diode DC IV Parameters
* BSIM4 - Diode DC IV parameters
+ diomod = 1.0
+ njs = 1.3632
+ jss = 2.1483e-5
+ jsws = 1.4472e-10
+ xtis = 5.2
+ bvs = 12.69
+ xjbvs = 1.0
+ ijthsrev = 0.1
+ ijthsfwd = 0.1
* Diode and FET Capacitance Parameters
+ tpb = 0.001671
+ tpbsw = 0.001246
+ tpbswg = 0.0
+ tcj = 0.0012407
+ tcjsw = 0.00037357
+ tcjswg = 2.0e-12
+ cgdo = 2.0e-11
+ cgso = 2.0e-11
+ cgbo = 1.0e-13
+ capmod = 2.0
+ xpart = 0.0
+ cgsl = 0.0
+ cgdl = 0.0
+ cf = 0.0
+ clc = 7.0e-8
+ cle = 0.492
+ dlc = -1.2e-8
+ dwc = 0.0
+ vfbcv = -1.0
+ acde = 0.44
+ moin = 8.7
+ noff = 2.6123
+ voffcv = 0.112
+ ngate = 1.0e+23
+ lwc = 0.0
+ llc = 0.0
+ lwlc = 0.0
+ wlc = 0.0
+ wwc = 0.0
+ wwlc = 0.0
* BSIM4 - FET and Diode capacitance parameters
+ ckappas = 0.6
+ cjs = 0.0007653568198
+ mjs = 0.3362
+ pbs = 0.6587
+ cjsws = 9.1602368e-11
+ mjsws = 0.2659
+ pbsws = 0.7418
+ cjswgs = 2.39155046e-10
+ mjswgs = 0.9274
+ pbswgs = 1.4338
* Stress Parameters
+ saref = 3.0e-6
+ sbref = 3.0e-6
+ wlod = {0+sky130_fd_pr__pfet_01v8_lvt__wlod_diff}
+ kvth0 = {0+sky130_fd_pr__pfet_01v8_lvt__kvth0_diff}
+ lkvth0 = {0+sky130_fd_pr__pfet_01v8_lvt__lkvth0_diff}
+ wkvth0 = {0+sky130_fd_pr__pfet_01v8_lvt__wkvth0_diff}
+ pkvth0 = 0.0
+ llodvth = 0.0
+ wlodvth = 1.0
+ stk2 = 0.0
+ lodk2 = 1.0
+ lodeta0 = 1.0
+ ku0 = {0+sky130_fd_pr__pfet_01v8_lvt__ku0_diff}
+ lku0 = {0+sky130_fd_pr__pfet_01v8_lvt__lku0_diff}
+ wku0 = {0+sky130_fd_pr__pfet_01v8_lvt__wku0_diff}
+ pku0 = 0.0
+ llodku0 = 0.0
+ wlodku0 = 1.0
+ kvsat = {0+sky130_fd_pr__pfet_01v8_lvt__kvsat_diff}
+ steta0 = 0.0
+ tku0 = 0.0
.model sky130_fd_pr__pfet_01v8_lvt__model.2 pmos
* DC IV MOS Parameters
+ lmin = 4e-06 lmax = 8e-06 wmin = 7e-06 wmax = 1.0e-4
+ level = 54.0
+ tnom = 30.0
+ version = 4.5
+ toxm = 4.23e-9
+ xj = 1.5e-7
+ lln = 1.0
+ lwn = 1.0
+ wln = 1.0
+ wwn = 1.0
+ lint = 2.8e-9
+ ll = 0.0
+ lw = 0.0
+ lwl = 0.0
+ wint = 7.476e-9
+ wl = 0.0
+ ww = 0.0
+ wwl = 0.0
+ xl = 0.0
+ xw = 0.0
+ mobmod = 0.0
+ binunit = 2.0
+ dwg = -7.916e-9
+ dwb = 0.0
* BSIM4 - Model Selectors
+ igcmod = 0.0
+ igbmod = 0.0
+ rgatemod = 0.0
+ rbodymod = 1.0
+ trnqsmod = 0.0
+ acnqsmod = 0.0
+ fnoimod = 1.0
+ tnoimod = 1.0
+ permod = 1.0
+ geomod = 0.0
+ rdsmod = 0.0
+ tempmod = 0.0
+ lintnoi = 0.0
+ vfbsdoff = 0.0
+ lambda = 0.0
+ vtl = 0.0
+ lc = 5.0e-9
+ xn = 3.0
+ rnoia = 0.69
+ rnoib = 0.34
+ tnoia = 25000000.0
+ tnoib = 0.0
* BSIM4 - Process Parameters
+ epsrox = 3.9
+ toxe = {4.23e-09+sky130_fd_pr__pfet_01v8_lvt__toxe_slope_spectre*(4.23e-09*(sky130_fd_pr__pfet_01v8_lvt__toxe_slope/sqrt(l*w*mult)))}
+ dtox = 0.0
+ ndep = 1.7000000000000000e+17
+ nsd = 1.0e+20
+ rshg = 0.1
+ rsh = 1.0
* Threshold Voltage Parameters
+ vth0 = {-4.586515046e-01+sky130_fd_pr__pfet_01v8_lvt__vth0_slope_spectre*(sky130_fd_pr__pfet_01v8_lvt__vth0_slope/sqrt(l*w*mult))} lvth0 = 6.555011957e-8
+ k1 = 0.64774
+ k2 = -4.616172578e-02 lk2 = 2.133911456e-9
+ k3 = 3.39
+ dvt0 = 2.4422
+ dvt1 = 0.16136
+ dvt2 = 0.026237
+ dvt0w = 0.5
+ dvt1w = 1928100.0
+ dvt2w = -0.032
+ w0 = 1.0e-8
+ k3b = 1.0
* NEW BSIM4 Parameters for Level 54
+ phin = 0.0
+ lpe0 = 0.0
+ lpeb = 0.0
+ vbm = -3.0
+ dvtp0 = 0.0
+ dvtp1 = 0.0
* Mobility Parameters
+ vsat = 123760.0
+ ua = -3.064217540e-09 lua = 4.702109418e-16
+ ub = 3.130975120e-18 lub = -7.121021393e-25
+ uc = 3.779220780e-11 luc = 9.242159716e-17
+ rdsw = 484.7
+ prwb = 0.1
+ prwg = 0.052
+ wr = 1.0
+ u0 = 2.442647034e-03 lu0 = 6.764834609e-10
+ a0 = 1.880980756e+00 la0 = -7.940098518e-7
+ keta = -0.01258
+ a1 = 0.0
+ a2 = 0.46703705
+ ags = 3.751948876e-01 lags = 1.248094714e-7
+ b0 = 0.0
+ b1 = 2.1073e-24
* BSIM4 - Mobility Parameters
+ eu = 1.67
+ rdswmin = 0.0
+ rdw = 0.0
+ rdwmin = 0.0
+ rsw = 0.0
+ rswmin = 0.0
* Subthreshold Current Parameters
+ voff = {-0.1819+sky130_fd_pr__pfet_01v8_lvt__voff_slope_spectre*(sky130_fd_pr__pfet_01v8_lvt__voff_slope/sqrt(l*w*mult))}
+ nfactor = {4.450349046e+00+sky130_fd_pr__pfet_01v8_lvt__nfactor_slope_spectre*(sky130_fd_pr__pfet_01v8_lvt__nfactor_slope/sqrt(l*w*mult))} lnfactor = -3.768952253e-06 wnfactor = -6.776263578e-21
+ up = 0.0
+ ud = 0.0
+ lp = 1.0
+ tvfbsdoff = 0.0
+ tvoff = 0.0
+ cit = -6.393105e-11
+ cdsc = 2.8125e-7
+ cdscb = 1.0e-4
+ cdscd = 1.0e-10
+ eta0 = 0.2
+ etab = -0.00025
+ dsub = 1.0
* BSIM4 - Sub-threshold parameters
+ voffl = 0.0
+ minv = 0.0
* Rout Parameters
+ pclm = 0.030097
+ pdiblc1 = 0.0
+ pdiblc2 = 7.488388000e-05 lpdiblc2 = 1.416380735e-8
+ pdiblcb = -0.025
+ drout = 0.43496
+ pscbe1 = 800000000.0
+ pscbe2 = 8.6797e-9
+ pvag = 0.0
+ delta = 5.859893400e-03 ldelta = 6.211734020e-8
+ alpha0 = 5.0449517e-13
+ alpha1 = -4.0583656e-18
+ beta0 = 6.2016506
* BSIM4 - Rout Parameters
+ fprout = 0.0
+ pdits = 0.0
+ pditsl = 0.0
+ pditsd = 0.0
* BSIM4 - Gate Induced Drain Leakage Model Parameters
+ agidl = 0.0
+ bgidl = 2300000000.0
+ cgidl = 0.5
+ egidl = 0.8
* BSIM4 - Gate Leakage Current Parameters
+ aigbacc = 0.43
+ bigbacc = 0.054
+ cigbacc = 0.075
+ nigbacc = 1.0
+ aigbinv = 0.35
+ bigbinv = 0.03
+ cigbinv = 0.006
+ eigbinv = 1.1
+ nigbinv = 3.0
+ aigc = 0.43
+ bigc = 0.054
+ cigc = 0.075
+ nigc = 1.0
+ aigsd = 0.43
+ bigsd = 0.054
+ cigsd = 0.075
+ dlcig = 0.0
+ poxedge = 1.0
+ pigcd = 1.0
+ ntox = 1.0
+ toxref = 4.23e-9
* Temperature Effects Parameters
+ kt1 = -1.134350974e+00 lkt1 = 5.076521865e-7
+ kt2 = -0.055045
+ at = 2.991709740e+05 lat = -1.084917945e-1
+ ute = -3.123143780e-01 lute = 7.163332395e-7
+ ua1 = 6.682694880e-10 lua1 = 1.111262531e-16
+ ub1 = -1.753625360e-19 lub1 = 2.136306418e-25
+ uc1 = -9.961e-12
+ kt1l = 0.0
+ prt = 0.0
* BSIM4 - High Speed RF Model Parameters
+ xrcrg1 = 12.0
+ xrcrg2 = 1.0
+ rbpb = 50.0
+ rbpd = 50.0
+ rbps = 50.0
+ rbdb = 50.0
+ rbsb = 50.0
+ gbmin = 1.0e-12
* BSIM4 - Flicker and Thermal Noise Parameters
+ noia = 3.0e+41
+ noib = 0.0
+ noic = 0.0
+ em = 41000000.0
+ af = 1.0
+ ef = 0.88
+ kf = 0.0
+ ntnoi = 1.0
* BSIM4 - Layout Dependent Parasitic Model Parameters
+ dmcg = 0.0
+ dmcgt = 0.0
+ dmdg = 0.0
+ xgw = 0.0
+ xgl = 0.0
+ ngcon = 1.0
* Diode DC IV Parameters
* BSIM4 - Diode DC IV parameters
+ diomod = 1.0
+ njs = 1.3632
+ jss = 2.1483e-5
+ jsws = 1.4472e-10
+ xtis = 5.2
+ bvs = 12.69
+ xjbvs = 1.0
+ ijthsrev = 0.1
+ ijthsfwd = 0.1
* Diode and FET Capacitance Parameters
+ tpb = 0.001671
+ tpbsw = 0.001246
+ tpbswg = 0.0
+ tcj = 0.0012407
+ tcjsw = 0.00037357
+ tcjswg = 2.0e-12
+ cgdo = 2.0e-11
+ cgso = 2.0e-11
+ cgbo = 1.0e-13
+ capmod = 2.0
+ xpart = 0.0
+ cgsl = 0.0
+ cgdl = 0.0
+ cf = 0.0
+ clc = 7.0e-8
+ cle = 0.492
+ dlc = -1.2e-8
+ dwc = 0.0
+ vfbcv = -1.0
+ acde = 0.44
+ moin = 8.7
+ noff = 2.6123
+ voffcv = 0.112
+ ngate = 1.0e+23
+ lwc = 0.0
+ llc = 0.0
+ lwlc = 0.0
+ wlc = 0.0
+ wwc = 0.0
+ wwlc = 0.0
* BSIM4 - FET and Diode capacitance parameters
+ ckappas = 0.6
+ cjs = 0.0007653568198
+ mjs = 0.3362
+ pbs = 0.6587
+ cjsws = 9.1602368e-11
+ mjsws = 0.2659
+ pbsws = 0.7418
+ cjswgs = 2.39155046e-10
+ mjswgs = 0.9274
+ pbswgs = 1.4338
* Stress Parameters
+ saref = 3.0e-6
+ sbref = 3.0e-6
+ wlod = {0+sky130_fd_pr__pfet_01v8_lvt__wlod_diff}
+ kvth0 = {0+sky130_fd_pr__pfet_01v8_lvt__kvth0_diff}
+ lkvth0 = {0+sky130_fd_pr__pfet_01v8_lvt__lkvth0_diff}
+ wkvth0 = {0+sky130_fd_pr__pfet_01v8_lvt__wkvth0_diff}
+ pkvth0 = 0.0
+ llodvth = 0.0
+ wlodvth = 1.0
+ stk2 = 0.0
+ lodk2 = 1.0
+ lodeta0 = 1.0
+ ku0 = {0+sky130_fd_pr__pfet_01v8_lvt__ku0_diff}
+ lku0 = {0+sky130_fd_pr__pfet_01v8_lvt__lku0_diff}
+ wku0 = {0+sky130_fd_pr__pfet_01v8_lvt__wku0_diff}
+ pku0 = 0.0
+ llodku0 = 0.0
+ wlodku0 = 1.0
+ kvsat = {0+sky130_fd_pr__pfet_01v8_lvt__kvsat_diff}
+ steta0 = 0.0
+ tku0 = 0.0
.model sky130_fd_pr__pfet_01v8_lvt__model.3 pmos
* DC IV MOS Parameters
+ lmin = 2e-06 lmax = 4e-06 wmin = 7e-06 wmax = 1.0e-4
+ level = 54.0
+ tnom = 30.0
+ version = 4.5
+ toxm = 4.23e-9
+ xj = 1.5e-7
+ lln = 1.0
+ lwn = 1.0
+ wln = 1.0
+ wwn = 1.0
+ lint = 2.8e-9
+ ll = 0.0
+ lw = 0.0
+ lwl = 0.0
+ wint = 7.476e-9
+ wl = 0.0
+ ww = 0.0
+ wwl = 0.0
+ xl = 0.0
+ xw = 0.0
+ mobmod = 0.0
+ binunit = 2.0
+ dwg = -7.916e-9
+ dwb = 0.0
* BSIM4 - Model Selectors
+ igcmod = 0.0
+ igbmod = 0.0
+ rgatemod = 0.0
+ rbodymod = 1.0
+ trnqsmod = 0.0
+ acnqsmod = 0.0
+ fnoimod = 1.0
+ tnoimod = 1.0
+ permod = 1.0
+ geomod = 0.0
+ rdsmod = 0.0
+ tempmod = 0.0
+ lintnoi = 0.0
+ vfbsdoff = 0.0
+ lambda = 0.0
+ vtl = 0.0
+ lc = 5.0e-9
+ xn = 3.0
+ rnoia = 0.69
+ rnoib = 0.34
+ tnoia = 25000000.0
+ tnoib = 0.0
* BSIM4 - Process Parameters
+ epsrox = 3.9
+ toxe = {4.23e-09+sky130_fd_pr__pfet_01v8_lvt__toxe_slope_spectre*(4.23e-09*(sky130_fd_pr__pfet_01v8_lvt__toxe_slope/sqrt(l*w*mult)))}
+ dtox = 0.0
+ ndep = 1.7000000000000000e+17
+ nsd = 1.0e+20
+ rshg = 0.1
+ rsh = 1.0
* Threshold Voltage Parameters
+ vth0 = {-4.217136380e-01+sky130_fd_pr__pfet_01v8_lvt__vth0_slope_spectre*(sky130_fd_pr__pfet_01v8_lvt__vth0_slope/sqrt(l*w*mult))} lvth0 = -8.199449477e-8
+ k1 = 0.64774
+ k2 = -3.880974332e-02 lk2 = -2.723284728e-8
+ k3 = 3.39
+ dvt0 = 2.4422
+ dvt1 = 0.16136
+ dvt2 = 0.026237
+ dvt0w = 0.5
+ dvt1w = 1928100.0
+ dvt2w = -0.032
+ w0 = 1.0e-8
+ k3b = 1.0
* NEW BSIM4 Parameters for Level 54
+ phin = 0.0
+ lpe0 = 0.0
+ lpeb = 0.0
+ vbm = -3.0
+ dvtp0 = 0.0
+ dvtp1 = 0.0
* Mobility Parameters
+ vsat = 1.566795664e+05 lvsat = -1.314939160e-1
+ ua = -3.113132120e-09 lua = 6.655953401e-16
+ ub = 3.175873360e-18 lub = -8.914436692e-25
+ uc = 6.136577640e-11 luc = -1.740665252e-18
+ rdsw = 484.7
+ prwb = 0.1
+ prwg = 0.052
+ wr = 1.0
+ u0 = 2.318823015e-03 lu0 = 1.171086123e-9
+ a0 = 2.278057913e+00 la0 = -2.380094848e-6
+ keta = -0.01258
+ a1 = 0.0
+ a2 = 0.46703705
+ ags = 4.214498572e-01 lags = -5.995137920e-8
+ b0 = 0.0
+ b1 = 2.1073e-24
* BSIM4 - Mobility Parameters
+ eu = 1.67
+ rdswmin = 0.0
+ rdw = 0.0
+ rdwmin = 0.0
+ rsw = 0.0
+ rswmin = 0.0
* Subthreshold Current Parameters
+ voff = {-0.1819+sky130_fd_pr__pfet_01v8_lvt__voff_slope_spectre*(sky130_fd_pr__pfet_01v8_lvt__voff_slope/sqrt(l*w*mult))}
+ nfactor = {3.358197228e+00+sky130_fd_pr__pfet_01v8_lvt__nfactor_slope_spectre*(sky130_fd_pr__pfet_01v8_lvt__nfactor_slope/sqrt(l*w*mult))} lnfactor = 5.935389685e-7
+ up = 0.0
+ ud = 0.0
+ lp = 1.0
+ tvfbsdoff = 0.0
+ tvoff = 0.0
+ cit = -6.393105e-11
+ cdsc = 2.8125e-7
+ cdscb = 1.0e-4
+ cdscd = 1.0e-10
+ eta0 = 0.2
+ etab = -0.00025
+ dsub = 1.0
* BSIM4 - Sub-threshold parameters
+ voffl = 0.0
+ minv = 0.0
* Rout Parameters
+ pclm = 0.030097
+ pdiblc1 = 0.0
+ pdiblc2 = 2.638259200e-04 lpdiblc2 = 1.340909727e-8
+ pdiblcb = -0.025
+ drout = 0.43496
+ pscbe1 = 800000000.0
+ pscbe2 = 8.6797e-9
+ pvag = 0.0
+ delta = 1.967986080e-02 ldelta = 6.914862420e-9
+ alpha0 = 5.0449517e-13
+ alpha1 = -4.0583656e-18
+ beta0 = 6.2016506
* BSIM4 - Rout Parameters
+ fprout = 0.0
+ pdits = 0.0
+ pditsl = 0.0
+ pditsd = 0.0
* BSIM4 - Gate Induced Drain Leakage Model Parameters
+ agidl = 0.0
+ bgidl = 2300000000.0
+ cgidl = 0.5
+ egidl = 0.8
* BSIM4 - Gate Leakage Current Parameters
+ aigbacc = 0.43
+ bigbacc = 0.054
+ cigbacc = 0.075
+ nigbacc = 1.0
+ aigbinv = 0.35
+ bigbinv = 0.03
+ cigbinv = 0.006
+ eigbinv = 1.1
+ nigbinv = 3.0
+ aigc = 0.43
+ bigc = 0.054
+ cigc = 0.075
+ nigc = 1.0
+ aigsd = 0.43
+ bigsd = 0.054
+ cigsd = 0.075
+ dlcig = 0.0
+ poxedge = 1.0
+ pigcd = 1.0
+ ntox = 1.0
+ toxref = 4.23e-9
* Temperature Effects Parameters
+ kt1 = -1.049800552e+00 lkt1 = 1.699239809e-7
+ kt2 = -0.055045
+ at = 3.780323040e+05 lat = -4.234954911e-1
+ ute = -0.13298
+ ua1 = 6.9609e-10
+ ub1 = -1.571260340e-19 lub1 = 1.407867582e-25
+ uc1 = -9.961e-12
+ kt1l = 0.0
+ prt = 0.0
* BSIM4 - High Speed RF Model Parameters
+ xrcrg1 = 12.0
+ xrcrg2 = 1.0
+ rbpb = 50.0
+ rbpd = 50.0
+ rbps = 50.0
+ rbdb = 50.0
+ rbsb = 50.0
+ gbmin = 1.0e-12
* BSIM4 - Flicker and Thermal Noise Parameters
+ noia = 3.0e+41
+ noib = 0.0
+ noic = 0.0
+ em = 41000000.0
+ af = 1.0
+ ef = 0.88
+ kf = 0.0
+ ntnoi = 1.0
* BSIM4 - Layout Dependent Parasitic Model Parameters
+ dmcg = 0.0
+ dmcgt = 0.0
+ dmdg = 0.0
+ xgw = 0.0
+ xgl = 0.0
+ ngcon = 1.0
* Diode DC IV Parameters
* BSIM4 - Diode DC IV parameters
+ diomod = 1.0
+ njs = 1.3632
+ jss = 2.1483e-5
+ jsws = 1.4472e-10
+ xtis = 5.2
+ bvs = 12.69
+ xjbvs = 1.0
+ ijthsrev = 0.1
+ ijthsfwd = 0.1
* Diode and FET Capacitance Parameters
+ tpb = 0.001671
+ tpbsw = 0.001246
+ tpbswg = 0.0
+ tcj = 0.0012407
+ tcjsw = 0.00037357
+ tcjswg = 2.0e-12
+ cgdo = 2.0e-11
+ cgso = 2.0e-11
+ cgbo = 1.0e-13
+ capmod = 2.0
+ xpart = 0.0
+ cgsl = 0.0
+ cgdl = 0.0
+ cf = 0.0
+ clc = 7.0e-8
+ cle = 0.492
+ dlc = -1.2e-8
+ dwc = 0.0
+ vfbcv = -1.0
+ acde = 0.44
+ moin = 8.7
+ noff = 2.6123
+ voffcv = 0.112
+ ngate = 1.0e+23
+ lwc = 0.0
+ llc = 0.0
+ lwlc = 0.0
+ wlc = 0.0
+ wwc = 0.0
+ wwlc = 0.0
* BSIM4 - FET and Diode capacitance parameters
+ ckappas = 0.6
+ cjs = 0.0007653568198
+ mjs = 0.3362
+ pbs = 0.6587
+ cjsws = 9.1602368e-11
+ mjsws = 0.2659
+ pbsws = 0.7418
+ cjswgs = 2.39155046e-10
+ mjswgs = 0.9274
+ pbswgs = 1.4338
* Stress Parameters
+ saref = 3.0e-6
+ sbref = 3.0e-6
+ wlod = {0+sky130_fd_pr__pfet_01v8_lvt__wlod_diff}
+ kvth0 = {0+sky130_fd_pr__pfet_01v8_lvt__kvth0_diff}
+ lkvth0 = {0+sky130_fd_pr__pfet_01v8_lvt__lkvth0_diff}
+ wkvth0 = {0+sky130_fd_pr__pfet_01v8_lvt__wkvth0_diff}
+ pkvth0 = 0.0
+ llodvth = 0.0
+ wlodvth = 1.0
+ stk2 = 0.0
+ lodk2 = 1.0
+ lodeta0 = 1.0
+ ku0 = {0+sky130_fd_pr__pfet_01v8_lvt__ku0_diff}
+ lku0 = {0+sky130_fd_pr__pfet_01v8_lvt__lku0_diff}
+ wku0 = {0+sky130_fd_pr__pfet_01v8_lvt__wku0_diff}
+ pku0 = 0.0
+ llodku0 = 0.0
+ wlodku0 = 1.0
+ kvsat = {0+sky130_fd_pr__pfet_01v8_lvt__kvsat_diff}
+ steta0 = 0.0
+ tku0 = 0.0
.model sky130_fd_pr__pfet_01v8_lvt__model.4 pmos
* DC IV MOS Parameters
+ lmin = 1.5e-06 lmax = 2e-06 wmin = 7e-06 wmax = 1.0e-4
+ level = 54.0
+ tnom = 30.0
+ version = 4.5
+ toxm = 4.23e-9
+ xj = 1.5e-7
+ lln = 1.0
+ lwn = 1.0
+ wln = 1.0
+ wwn = 1.0
+ lint = 2.8e-9
+ ll = 0.0
+ lw = 0.0
+ lwl = 0.0
+ wint = 7.476e-9
+ wl = 0.0
+ ww = 0.0
+ wwl = 0.0
+ xl = 0.0
+ xw = 0.0
+ mobmod = 0.0
+ binunit = 2.0
+ dwg = -7.916e-9
+ dwb = 0.0
* BSIM4 - Model Selectors
+ igcmod = 0.0
+ igbmod = 0.0
+ rgatemod = 0.0
+ rbodymod = 1.0
+ trnqsmod = 0.0
+ acnqsmod = 0.0
+ fnoimod = 1.0
+ tnoimod = 1.0
+ permod = 1.0
+ geomod = 0.0
+ rdsmod = 0.0
+ tempmod = 0.0
+ lintnoi = 0.0
+ vfbsdoff = 0.0
+ lambda = 0.0
+ vtl = 0.0
+ lc = 5.0e-9
+ xn = 3.0
+ rnoia = 0.69
+ rnoib = 0.34
+ tnoia = 25000000.0
+ tnoib = 0.0
* BSIM4 - Process Parameters
+ epsrox = 3.9
+ toxe = {4.23e-09+sky130_fd_pr__pfet_01v8_lvt__toxe_slope_spectre*(4.23e-09*(sky130_fd_pr__pfet_01v8_lvt__toxe_slope/sqrt(l*w*mult)))}
+ dtox = 0.0
+ ndep = 1.7000000000000000e+17
+ nsd = 1.0e+20
+ rshg = 0.1
+ rsh = 1.0
* Threshold Voltage Parameters
+ vth0 = {-4.682476832e-01+sky130_fd_pr__pfet_01v8_lvt__vth0_slope_spectre*(sky130_fd_pr__pfet_01v8_lvt__vth0_slope/sqrt(l*w*mult))} lvth0 = 1.081300497e-8
+ k1 = 0.64774
+ k2 = -4.457785344e-02 lk2 = -1.572892846e-8
+ k3 = 3.39
+ dvt0 = 2.4422
+ dvt1 = 0.16136
+ dvt2 = 0.026237
+ dvt0w = 0.5
+ dvt1w = 1928100.0
+ dvt2w = -0.032
+ w0 = 1.0e-8
+ k3b = 1.0
* NEW BSIM4 Parameters for Level 54
+ phin = 0.0
+ lpe0 = 0.0
+ lpeb = 0.0
+ vbm = -3.0
+ dvtp0 = 0.0
+ dvtp1 = 0.0
* Mobility Parameters
+ vsat = 90748.0
+ ua = -2.234840640e-09 lua = -1.086069188e-15
+ ub = 1.831961120e-18 lub = 1.788854902e-24
+ uc = 2.748768160e-11 luc = 6.582580702e-17
+ rdsw = 484.7
+ prwb = 0.1
+ prwg = 0.052
+ wr = 1.0
+ u0 = 3.149729505e-03 lu0 = -4.860737818e-10
+ a0 = 1.084274478e+00 la0 = 7.868338790e-10
+ keta = -0.01258
+ a1 = 0.0
+ a2 = 0.46703705
+ ags = 1.599373280e-01 lags = 4.616092090e-7
+ b0 = 0.0
+ b1 = 2.1073e-24
* BSIM4 - Mobility Parameters
+ eu = 1.67
+ rdswmin = 0.0
+ rdw = 0.0
+ rdwmin = 0.0
+ rsw = 0.0
+ rswmin = 0.0
* Subthreshold Current Parameters
+ voff = {-0.1819+sky130_fd_pr__pfet_01v8_lvt__voff_slope_spectre*(sky130_fd_pr__pfet_01v8_lvt__voff_slope/sqrt(l*w*mult))}
+ nfactor = {5.160541248e+00+sky130_fd_pr__pfet_01v8_lvt__nfactor_slope_spectre*(sky130_fd_pr__pfet_01v8_lvt__nfactor_slope/sqrt(l*w*mult))} lnfactor = -3.001055945e-6
+ up = 0.0
+ ud = 0.0
+ lp = 1.0
+ tvfbsdoff = 0.0
+ tvoff = 0.0
+ cit = -6.393105e-11
+ cdsc = 2.8125e-7
+ cdscb = 1.0e-4
+ cdscd = 1.0e-10
+ eta0 = 0.2
+ etab = -0.00025
+ dsub = 1.0
* BSIM4 - Sub-threshold parameters
+ voffl = 0.0
+ minv = 0.0
* Rout Parameters
+ pclm = 0.030097
+ pdiblc1 = 0.0
+ pdiblc2 = -3.278730240e-03 lpdiblc2 = 2.047437127e-8
+ pdiblcb = -0.025
+ drout = 0.43496
+ pscbe1 = 800000000.0
+ pscbe2 = 8.6797e-9
+ pvag = 0.0
+ delta = 1.696915040e-02 ldelta = 1.232110324e-8
+ alpha0 = 5.0449517e-13
+ alpha1 = -4.0583656e-18
+ beta0 = 6.2016506
* BSIM4 - Rout Parameters
+ fprout = 0.0
+ pdits = 0.0
+ pditsl = 0.0
+ pditsd = 0.0
* BSIM4 - Gate Induced Drain Leakage Model Parameters
+ agidl = 0.0
+ bgidl = 2300000000.0
+ cgidl = 0.5
+ egidl = 0.8
* BSIM4 - Gate Leakage Current Parameters
+ aigbacc = 0.43
+ bigbacc = 0.054
+ cigbacc = 0.075
+ nigbacc = 1.0
+ aigbinv = 0.35
+ bigbinv = 0.03
+ cigbinv = 0.006
+ eigbinv = 1.1
+ nigbinv = 3.0
+ aigc = 0.43
+ bigc = 0.054
+ cigc = 0.075
+ nigc = 1.0
+ aigsd = 0.43
+ bigsd = 0.054
+ cigsd = 0.075
+ dlcig = 0.0
+ poxedge = 1.0
+ pigcd = 1.0
+ ntox = 1.0
+ toxref = 4.23e-9
* Temperature Effects Parameters
+ kt1 = -9.697706240e-01 lkt1 = 1.031229251e-8
+ kt2 = -0.055045
+ at = 2.058295840e+05 lat = -8.005438633e-2
+ ute = -0.13298
+ ua1 = 8.001002400e-10 lua1 = -2.074380227e-16
+ ub1 = -3.124733360e-19 lub1 = 4.506114173e-25
+ uc1 = -9.961e-12
+ kt1l = 0.0
+ prt = 0.0
* BSIM4 - High Speed RF Model Parameters
+ xrcrg1 = 12.0
+ xrcrg2 = 1.0
+ rbpb = 50.0
+ rbpd = 50.0
+ rbps = 50.0
+ rbdb = 50.0
+ rbsb = 50.0
+ gbmin = 1.0e-12
* BSIM4 - Flicker and Thermal Noise Parameters
+ noia = 3.0e+41
+ noib = 0.0
+ noic = 0.0
+ em = 41000000.0
+ af = 1.0
+ ef = 0.88
+ kf = 0.0
+ ntnoi = 1.0
* BSIM4 - Layout Dependent Parasitic Model Parameters
+ dmcg = 0.0
+ dmcgt = 0.0
+ dmdg = 0.0
+ xgw = 0.0
+ xgl = 0.0
+ ngcon = 1.0
* Diode DC IV Parameters
* BSIM4 - Diode DC IV parameters
+ diomod = 1.0
+ njs = 1.3632
+ jss = 2.1483e-5
+ jsws = 1.4472e-10
+ xtis = 5.2
+ bvs = 12.69
+ xjbvs = 1.0
+ ijthsrev = 0.1
+ ijthsfwd = 0.1
* Diode and FET Capacitance Parameters
+ tpb = 0.001671
+ tpbsw = 0.001246
+ tpbswg = 0.0
+ tcj = 0.0012407
+ tcjsw = 0.00037357
+ tcjswg = 2.0e-12
+ cgdo = 2.0e-11
+ cgso = 2.0e-11
+ cgbo = 1.0e-13
+ capmod = 2.0
+ xpart = 0.0
+ cgsl = 0.0
+ cgdl = 0.0
+ cf = 0.0
+ clc = 7.0e-8
+ cle = 0.492
+ dlc = -1.2e-8
+ dwc = 0.0
+ vfbcv = -1.0
+ acde = 0.44
+ moin = 8.7
+ noff = 2.6123
+ voffcv = 0.112
+ ngate = 1.0e+23
+ lwc = 0.0
+ llc = 0.0
+ lwlc = 0.0
+ wlc = 0.0
+ wwc = 0.0
+ wwlc = 0.0
* BSIM4 - FET and Diode capacitance parameters
+ ckappas = 0.6
+ cjs = 0.0007653568198
+ mjs = 0.3362
+ pbs = 0.6587
+ cjsws = 9.1602368e-11
+ mjsws = 0.2659
+ pbsws = 0.7418
+ cjswgs = 2.39155046e-10
+ mjswgs = 0.9274
+ pbswgs = 1.4338
* Stress Parameters
+ saref = 3.0e-6
+ sbref = 3.0e-6
+ wlod = {0+sky130_fd_pr__pfet_01v8_lvt__wlod_diff}
+ kvth0 = {0+sky130_fd_pr__pfet_01v8_lvt__kvth0_diff}
+ lkvth0 = {0+sky130_fd_pr__pfet_01v8_lvt__lkvth0_diff}
+ wkvth0 = {0+sky130_fd_pr__pfet_01v8_lvt__wkvth0_diff}