**************************************************
* OpenRAM generated memory.
* Words: 512
* Data bits: 8
* Banks: 1
* Column mux: 8:1
* Trimmed: False
* LVS: True
**************************************************
* Copyright 2020 The SkyWater PDK Authors
*
* Licensed under the Apache License, Version 2.0 (the "License");
* you may not use this file except in compliance with the License.
* You may obtain a copy of the License at
*
*     https://www.apache.org/licenses/LICENSE-2.0
*
* Unless required by applicable law or agreed to in writing, software
* distributed under the License is distributed on an "AS IS" BASIS,
* WITHOUT WARRANTIES OR CONDITIONS OF ANY KIND, either express or implied.
* See the License for the specific language governing permissions and
* limitations under the License.
*
* SPDX-License-Identifier: Apache-2.0

* SPICE3 file created from sky130_fd_bd_sram__openram_dff.ext - technology: EFS8A

.subckt sky130_fd_bd_sram__openram_dff D Q CLK VDD GND
X1000 a_511_725# a_n8_115# VDD VDD sky130_fd_pr__pfet_01v8 W=3u L=0.15u m=1
X1001 a_353_115# CLK a_11_624# GND sky130_fd_pr__nfet_01v8 W=1u L=0.15u m=1
X1002 a_353_725# a_203_89# a_11_624# VDD sky130_fd_pr__pfet_01v8 W=3u L=0.15u m=1
X1003 a_11_624# a_203_89# a_161_115# GND sky130_fd_pr__nfet_01v8 W=1u L=0.15u m=1
X1004 a_11_624# CLK a_161_725# VDD sky130_fd_pr__pfet_01v8 W=3u L=0.15u m=1
X1005 GND Q a_703_115# GND sky130_fd_pr__nfet_01v8 W=1u L=0.15u m=1
X1006 VDD Q a_703_725# VDD sky130_fd_pr__pfet_01v8 W=3u L=0.15u m=1
X1007 a_203_89# CLK GND GND sky130_fd_pr__nfet_01v8 W=1u L=0.15u m=1
X1008 a_203_89# CLK VDD VDD sky130_fd_pr__pfet_01v8 W=3u L=0.15u m=1
X1009 a_161_115# D GND GND sky130_fd_pr__nfet_01v8 W=1u L=0.15u m=1
X1010 a_161_725# D VDD VDD sky130_fd_pr__pfet_01v8 W=3u L=0.15u m=1
X1011 GND a_11_624# a_n8_115# GND sky130_fd_pr__nfet_01v8 W=1u L=0.15u m=1
X1012 a_703_115# a_203_89# ON GND sky130_fd_pr__nfet_01v8 W=1u L=0.15u m=1
X1013 VDD a_11_624# a_n8_115# VDD sky130_fd_pr__pfet_01v8 W=3u L=0.15u m=1
X1014 a_703_725# CLK ON VDD sky130_fd_pr__pfet_01v8 W=3u L=0.15u m=1
X1015 Q ON VDD VDD sky130_fd_pr__pfet_01v8 W=3u L=0.15u m=1
X1016 Q ON GND GND sky130_fd_pr__nfet_01v8 W=1u L=0.15u m=1
X1017 ON a_203_89# a_511_725# VDD sky130_fd_pr__pfet_01v8 W=3u L=0.15u m=1
X1018 ON CLK a_511_115# GND sky130_fd_pr__nfet_01v8 W=1u L=0.15u m=1
X1019 GND a_n8_115# a_353_115# GND sky130_fd_pr__nfet_01v8 W=1u L=0.15u m=1
X1020 VDD a_n8_115# a_353_725# VDD sky130_fd_pr__pfet_01v8 W=3u L=0.15u m=1
X1021 a_511_115# a_n8_115# GND GND sky130_fd_pr__nfet_01v8 W=1u L=0.15u m=1
.ends

.SUBCKT myconfig_col_addr_dff
+ din_0 din_1 din_2 dout_0 dout_1 dout_2 clk vdd gnd
* INPUT : din_0 
* INPUT : din_1 
* INPUT : din_2 
* OUTPUT: dout_0 
* OUTPUT: dout_1 
* OUTPUT: dout_2 
* INPUT : clk 
* POWER : vdd 
* GROUND: gnd 
* rows: 1 cols: 3
Xdff_r0_c0
+ din_0 dout_0 CLK VDD GND
+ sky130_fd_bd_sram__openram_dff
Xdff_r0_c1
+ din_1 dout_1 CLK VDD GND
+ sky130_fd_bd_sram__openram_dff
Xdff_r0_c2
+ din_2 dout_2 CLK VDD GND
+ sky130_fd_bd_sram__openram_dff
.ENDS myconfig_col_addr_dff

* spice ptx X{0} {1} sky130_fd_pr__pfet_01v8 m=1 w=0.55 l=0.15 pd=1.40 ps=1.40 as=0.21u ad=0.21u

.SUBCKT myconfig_precharge_0
+ bl br en_bar vdd
* OUTPUT: bl 
* OUTPUT: br 
* INPUT : en_bar 
* POWER : vdd 
Xlower_pmos bl en_bar br vdd sky130_fd_pr__pfet_01v8 m=1 w=0.55u l=0.15u
Xupper_pmos1 bl en_bar vdd vdd sky130_fd_pr__pfet_01v8 m=1 w=0.55u l=0.15u
Xupper_pmos2 br en_bar vdd vdd sky130_fd_pr__pfet_01v8 m=1 w=0.55u l=0.15u
.ENDS myconfig_precharge_0

.SUBCKT myconfig_precharge_array
+ bl_0 br_0 bl_1 br_1 bl_2 br_2 bl_3 br_3 bl_4 br_4 bl_5 br_5 bl_6 br_6
+ bl_7 br_7 bl_8 br_8 bl_9 br_9 bl_10 br_10 bl_11 br_11 bl_12 br_12
+ bl_13 br_13 bl_14 br_14 bl_15 br_15 bl_16 br_16 bl_17 br_17 bl_18
+ br_18 bl_19 br_19 bl_20 br_20 bl_21 br_21 bl_22 br_22 bl_23 br_23
+ bl_24 br_24 bl_25 br_25 bl_26 br_26 bl_27 br_27 bl_28 br_28 bl_29
+ br_29 bl_30 br_30 bl_31 br_31 bl_32 br_32 bl_33 br_33 bl_34 br_34
+ bl_35 br_35 bl_36 br_36 bl_37 br_37 bl_38 br_38 bl_39 br_39 bl_40
+ br_40 bl_41 br_41 bl_42 br_42 bl_43 br_43 bl_44 br_44 bl_45 br_45
+ bl_46 br_46 bl_47 br_47 bl_48 br_48 bl_49 br_49 bl_50 br_50 bl_51
+ br_51 bl_52 br_52 bl_53 br_53 bl_54 br_54 bl_55 br_55 bl_56 br_56
+ bl_57 br_57 bl_58 br_58 bl_59 br_59 bl_60 br_60 bl_61 br_61 bl_62
+ br_62 bl_63 br_63 bl_64 br_64 en_bar vdd
* OUTPUT: bl_0 
* OUTPUT: br_0 
* OUTPUT: bl_1 
* OUTPUT: br_1 
* OUTPUT: bl_2 
* OUTPUT: br_2 
* OUTPUT: bl_3 
* OUTPUT: br_3 
* OUTPUT: bl_4 
* OUTPUT: br_4 
* OUTPUT: bl_5 
* OUTPUT: br_5 
* OUTPUT: bl_6 
* OUTPUT: br_6 
* OUTPUT: bl_7 
* OUTPUT: br_7 
* OUTPUT: bl_8 
* OUTPUT: br_8 
* OUTPUT: bl_9 
* OUTPUT: br_9 
* OUTPUT: bl_10 
* OUTPUT: br_10 
* OUTPUT: bl_11 
* OUTPUT: br_11 
* OUTPUT: bl_12 
* OUTPUT: br_12 
* OUTPUT: bl_13 
* OUTPUT: br_13 
* OUTPUT: bl_14 
* OUTPUT: br_14 
* OUTPUT: bl_15 
* OUTPUT: br_15 
* OUTPUT: bl_16 
* OUTPUT: br_16 
* OUTPUT: bl_17 
* OUTPUT: br_17 
* OUTPUT: bl_18 
* OUTPUT: br_18 
* OUTPUT: bl_19 
* OUTPUT: br_19 
* OUTPUT: bl_20 
* OUTPUT: br_20 
* OUTPUT: bl_21 
* OUTPUT: br_21 
* OUTPUT: bl_22 
* OUTPUT: br_22 
* OUTPUT: bl_23 
* OUTPUT: br_23 
* OUTPUT: bl_24 
* OUTPUT: br_24 
* OUTPUT: bl_25 
* OUTPUT: br_25 
* OUTPUT: bl_26 
* OUTPUT: br_26 
* OUTPUT: bl_27 
* OUTPUT: br_27 
* OUTPUT: bl_28 
* OUTPUT: br_28 
* OUTPUT: bl_29 
* OUTPUT: br_29 
* OUTPUT: bl_30 
* OUTPUT: br_30 
* OUTPUT: bl_31 
* OUTPUT: br_31 
* OUTPUT: bl_32 
* OUTPUT: br_32 
* OUTPUT: bl_33 
* OUTPUT: br_33 
* OUTPUT: bl_34 
* OUTPUT: br_34 
* OUTPUT: bl_35 
* OUTPUT: br_35 
* OUTPUT: bl_36 
* OUTPUT: br_36 
* OUTPUT: bl_37 
* OUTPUT: br_37 
* OUTPUT: bl_38 
* OUTPUT: br_38 
* OUTPUT: bl_39 
* OUTPUT: br_39 
* OUTPUT: bl_40 
* OUTPUT: br_40 
* OUTPUT: bl_41 
* OUTPUT: br_41 
* OUTPUT: bl_42 
* OUTPUT: br_42 
* OUTPUT: bl_43 
* OUTPUT: br_43 
* OUTPUT: bl_44 
* OUTPUT: br_44 
* OUTPUT: bl_45 
* OUTPUT: br_45 
* OUTPUT: bl_46 
* OUTPUT: br_46 
* OUTPUT: bl_47 
* OUTPUT: br_47 
* OUTPUT: bl_48 
* OUTPUT: br_48 
* OUTPUT: bl_49 
* OUTPUT: br_49 
* OUTPUT: bl_50 
* OUTPUT: br_50 
* OUTPUT: bl_51 
* OUTPUT: br_51 
* OUTPUT: bl_52 
* OUTPUT: br_52 
* OUTPUT: bl_53 
* OUTPUT: br_53 
* OUTPUT: bl_54 
* OUTPUT: br_54 
* OUTPUT: bl_55 
* OUTPUT: br_55 
* OUTPUT: bl_56 
* OUTPUT: br_56 
* OUTPUT: bl_57 
* OUTPUT: br_57 
* OUTPUT: bl_58 
* OUTPUT: br_58 
* OUTPUT: bl_59 
* OUTPUT: br_59 
* OUTPUT: bl_60 
* OUTPUT: br_60 
* OUTPUT: bl_61 
* OUTPUT: br_61 
* OUTPUT: bl_62 
* OUTPUT: br_62 
* OUTPUT: bl_63 
* OUTPUT: br_63 
* OUTPUT: bl_64 
* OUTPUT: br_64 
* INPUT : en_bar 
* POWER : vdd 
* cols: 65 size: 1 bl: bl0 br: br0
Xpre_column_0
+ bl_0 br_0 en_bar vdd
+ myconfig_precharge_0
Xpre_column_1
+ bl_1 br_1 en_bar vdd
+ myconfig_precharge_0
Xpre_column_2
+ bl_2 br_2 en_bar vdd
+ myconfig_precharge_0
Xpre_column_3
+ bl_3 br_3 en_bar vdd
+ myconfig_precharge_0
Xpre_column_4
+ bl_4 br_4 en_bar vdd
+ myconfig_precharge_0
Xpre_column_5
+ bl_5 br_5 en_bar vdd
+ myconfig_precharge_0
Xpre_column_6
+ bl_6 br_6 en_bar vdd
+ myconfig_precharge_0
Xpre_column_7
+ bl_7 br_7 en_bar vdd
+ myconfig_precharge_0
Xpre_column_8
+ bl_8 br_8 en_bar vdd
+ myconfig_precharge_0
Xpre_column_9
+ bl_9 br_9 en_bar vdd
+ myconfig_precharge_0
Xpre_column_10
+ bl_10 br_10 en_bar vdd
+ myconfig_precharge_0
Xpre_column_11
+ bl_11 br_11 en_bar vdd
+ myconfig_precharge_0
Xpre_column_12
+ bl_12 br_12 en_bar vdd
+ myconfig_precharge_0
Xpre_column_13
+ bl_13 br_13 en_bar vdd
+ myconfig_precharge_0
Xpre_column_14
+ bl_14 br_14 en_bar vdd
+ myconfig_precharge_0
Xpre_column_15
+ bl_15 br_15 en_bar vdd
+ myconfig_precharge_0
Xpre_column_16
+ bl_16 br_16 en_bar vdd
+ myconfig_precharge_0
Xpre_column_17
+ bl_17 br_17 en_bar vdd
+ myconfig_precharge_0
Xpre_column_18
+ bl_18 br_18 en_bar vdd
+ myconfig_precharge_0
Xpre_column_19
+ bl_19 br_19 en_bar vdd
+ myconfig_precharge_0
Xpre_column_20
+ bl_20 br_20 en_bar vdd
+ myconfig_precharge_0
Xpre_column_21
+ bl_21 br_21 en_bar vdd
+ myconfig_precharge_0
Xpre_column_22
+ bl_22 br_22 en_bar vdd
+ myconfig_precharge_0
Xpre_column_23
+ bl_23 br_23 en_bar vdd
+ myconfig_precharge_0
Xpre_column_24
+ bl_24 br_24 en_bar vdd
+ myconfig_precharge_0
Xpre_column_25
+ bl_25 br_25 en_bar vdd
+ myconfig_precharge_0
Xpre_column_26
+ bl_26 br_26 en_bar vdd
+ myconfig_precharge_0
Xpre_column_27
+ bl_27 br_27 en_bar vdd
+ myconfig_precharge_0
Xpre_column_28
+ bl_28 br_28 en_bar vdd
+ myconfig_precharge_0
Xpre_column_29
+ bl_29 br_29 en_bar vdd
+ myconfig_precharge_0
Xpre_column_30
+ bl_30 br_30 en_bar vdd
+ myconfig_precharge_0
Xpre_column_31
+ bl_31 br_31 en_bar vdd
+ myconfig_precharge_0
Xpre_column_32
+ bl_32 br_32 en_bar vdd
+ myconfig_precharge_0
Xpre_column_33
+ bl_33 br_33 en_bar vdd
+ myconfig_precharge_0
Xpre_column_34
+ bl_34 br_34 en_bar vdd
+ myconfig_precharge_0
Xpre_column_35
+ bl_35 br_35 en_bar vdd
+ myconfig_precharge_0
Xpre_column_36
+ bl_36 br_36 en_bar vdd
+ myconfig_precharge_0
Xpre_column_37
+ bl_37 br_37 en_bar vdd
+ myconfig_precharge_0
Xpre_column_38
+ bl_38 br_38 en_bar vdd
+ myconfig_precharge_0
Xpre_column_39
+ bl_39 br_39 en_bar vdd
+ myconfig_precharge_0
Xpre_column_40
+ bl_40 br_40 en_bar vdd
+ myconfig_precharge_0
Xpre_column_41
+ bl_41 br_41 en_bar vdd
+ myconfig_precharge_0
Xpre_column_42
+ bl_42 br_42 en_bar vdd
+ myconfig_precharge_0
Xpre_column_43
+ bl_43 br_43 en_bar vdd
+ myconfig_precharge_0
Xpre_column_44
+ bl_44 br_44 en_bar vdd
+ myconfig_precharge_0
Xpre_column_45
+ bl_45 br_45 en_bar vdd
+ myconfig_precharge_0
Xpre_column_46
+ bl_46 br_46 en_bar vdd
+ myconfig_precharge_0
Xpre_column_47
+ bl_47 br_47 en_bar vdd
+ myconfig_precharge_0
Xpre_column_48
+ bl_48 br_48 en_bar vdd
+ myconfig_precharge_0
Xpre_column_49
+ bl_49 br_49 en_bar vdd
+ myconfig_precharge_0
Xpre_column_50
+ bl_50 br_50 en_bar vdd
+ myconfig_precharge_0
Xpre_column_51
+ bl_51 br_51 en_bar vdd
+ myconfig_precharge_0
Xpre_column_52
+ bl_52 br_52 en_bar vdd
+ myconfig_precharge_0
Xpre_column_53
+ bl_53 br_53 en_bar vdd
+ myconfig_precharge_0
Xpre_column_54
+ bl_54 br_54 en_bar vdd
+ myconfig_precharge_0
Xpre_column_55
+ bl_55 br_55 en_bar vdd
+ myconfig_precharge_0
Xpre_column_56
+ bl_56 br_56 en_bar vdd
+ myconfig_precharge_0
Xpre_column_57
+ bl_57 br_57 en_bar vdd
+ myconfig_precharge_0
Xpre_column_58
+ bl_58 br_58 en_bar vdd
+ myconfig_precharge_0
Xpre_column_59
+ bl_59 br_59 en_bar vdd
+ myconfig_precharge_0
Xpre_column_60
+ bl_60 br_60 en_bar vdd
+ myconfig_precharge_0
Xpre_column_61
+ bl_61 br_61 en_bar vdd
+ myconfig_precharge_0
Xpre_column_62
+ bl_62 br_62 en_bar vdd
+ myconfig_precharge_0
Xpre_column_63
+ bl_63 br_63 en_bar vdd
+ myconfig_precharge_0
Xpre_column_64
+ bl_64 br_64 en_bar vdd
+ myconfig_precharge_0
.ENDS myconfig_precharge_array

* spice ptx X{0} {1} sky130_fd_pr__nfet_01v8 m=1 w=2.88 l=0.15 pd=6.06 ps=6.06 as=1.08u ad=1.08u

.SUBCKT myconfig_column_mux
+ bl br bl_out br_out sel gnd
* INOUT : bl 
* INOUT : br 
* INOUT : bl_out 
* INOUT : br_out 
* INOUT : sel 
* INOUT : gnd 
Xmux_tx1 bl sel bl_out gnd sky130_fd_pr__nfet_01v8 m=1 w=2.88u l=0.15u
Xmux_tx2 br sel br_out gnd sky130_fd_pr__nfet_01v8 m=1 w=2.88u l=0.15u
.ENDS myconfig_column_mux

.SUBCKT myconfig_column_mux_array
+ bl_0 br_0 bl_1 br_1 bl_2 br_2 bl_3 br_3 bl_4 br_4 bl_5 br_5 bl_6 br_6
+ bl_7 br_7 bl_8 br_8 bl_9 br_9 bl_10 br_10 bl_11 br_11 bl_12 br_12
+ bl_13 br_13 bl_14 br_14 bl_15 br_15 bl_16 br_16 bl_17 br_17 bl_18
+ br_18 bl_19 br_19 bl_20 br_20 bl_21 br_21 bl_22 br_22 bl_23 br_23
+ bl_24 br_24 bl_25 br_25 bl_26 br_26 bl_27 br_27 bl_28 br_28 bl_29
+ br_29 bl_30 br_30 bl_31 br_31 bl_32 br_32 bl_33 br_33 bl_34 br_34
+ bl_35 br_35 bl_36 br_36 bl_37 br_37 bl_38 br_38 bl_39 br_39 bl_40
+ br_40 bl_41 br_41 bl_42 br_42 bl_43 br_43 bl_44 br_44 bl_45 br_45
+ bl_46 br_46 bl_47 br_47 bl_48 br_48 bl_49 br_49 bl_50 br_50 bl_51
+ br_51 bl_52 br_52 bl_53 br_53 bl_54 br_54 bl_55 br_55 bl_56 br_56
+ bl_57 br_57 bl_58 br_58 bl_59 br_59 bl_60 br_60 bl_61 br_61 bl_62
+ br_62 bl_63 br_63 sel_0 sel_1 sel_2 sel_3 sel_4 sel_5 sel_6 sel_7
+ bl_out_0 br_out_0 bl_out_1 br_out_1 bl_out_2 br_out_2 bl_out_3
+ br_out_3 bl_out_4 br_out_4 bl_out_5 br_out_5 bl_out_6 br_out_6
+ bl_out_7 br_out_7 gnd
* INOUT : bl_0 
* INOUT : br_0 
* INOUT : bl_1 
* INOUT : br_1 
* INOUT : bl_2 
* INOUT : br_2 
* INOUT : bl_3 
* INOUT : br_3 
* INOUT : bl_4 
* INOUT : br_4 
* INOUT : bl_5 
* INOUT : br_5 
* INOUT : bl_6 
* INOUT : br_6 
* INOUT : bl_7 
* INOUT : br_7 
* INOUT : bl_8 
* INOUT : br_8 
* INOUT : bl_9 
* INOUT : br_9 
* INOUT : bl_10 
* INOUT : br_10 
* INOUT : bl_11 
* INOUT : br_11 
* INOUT : bl_12 
* INOUT : br_12 
* INOUT : bl_13 
* INOUT : br_13 
* INOUT : bl_14 
* INOUT : br_14 
* INOUT : bl_15 
* INOUT : br_15 
* INOUT : bl_16 
* INOUT : br_16 
* INOUT : bl_17 
* INOUT : br_17 
* INOUT : bl_18 
* INOUT : br_18 
* INOUT : bl_19 
* INOUT : br_19 
* INOUT : bl_20 
* INOUT : br_20 
* INOUT : bl_21 
* INOUT : br_21 
* INOUT : bl_22 
* INOUT : br_22 
* INOUT : bl_23 
* INOUT : br_23 
* INOUT : bl_24 
* INOUT : br_24 
* INOUT : bl_25 
* INOUT : br_25 
* INOUT : bl_26 
* INOUT : br_26 
* INOUT : bl_27 
* INOUT : br_27 
* INOUT : bl_28 
* INOUT : br_28 
* INOUT : bl_29 
* INOUT : br_29 
* INOUT : bl_30 
* INOUT : br_30 
* INOUT : bl_31 
* INOUT : br_31 
* INOUT : bl_32 
* INOUT : br_32 
* INOUT : bl_33 
* INOUT : br_33 
* INOUT : bl_34 
* INOUT : br_34 
* INOUT : bl_35 
* INOUT : br_35 
* INOUT : bl_36 
* INOUT : br_36 
* INOUT : bl_37 
* INOUT : br_37 
* INOUT : bl_38 
* INOUT : br_38 
* INOUT : bl_39 
* INOUT : br_39 
* INOUT : bl_40 
* INOUT : br_40 
* INOUT : bl_41 
* INOUT : br_41 
* INOUT : bl_42 
* INOUT : br_42 
* INOUT : bl_43 
* INOUT : br_43 
* INOUT : bl_44 
* INOUT : br_44 
* INOUT : bl_45 
* INOUT : br_45 
* INOUT : bl_46 
* INOUT : br_46 
* INOUT : bl_47 
* INOUT : br_47 
* INOUT : bl_48 
* INOUT : br_48 
* INOUT : bl_49 
* INOUT : br_49 
* INOUT : bl_50 
* INOUT : br_50 
* INOUT : bl_51 
* INOUT : br_51 
* INOUT : bl_52 
* INOUT : br_52 
* INOUT : bl_53 
* INOUT : br_53 
* INOUT : bl_54 
* INOUT : br_54 
* INOUT : bl_55 
* INOUT : br_55 
* INOUT : bl_56 
* INOUT : br_56 
* INOUT : bl_57 
* INOUT : br_57 
* INOUT : bl_58 
* INOUT : br_58 
* INOUT : bl_59 
* INOUT : br_59 
* INOUT : bl_60 
* INOUT : br_60 
* INOUT : bl_61 
* INOUT : br_61 
* INOUT : bl_62 
* INOUT : br_62 
* INOUT : bl_63 
* INOUT : br_63 
* INOUT : sel_0 
* INOUT : sel_1 
* INOUT : sel_2 
* INOUT : sel_3 
* INOUT : sel_4 
* INOUT : sel_5 
* INOUT : sel_6 
* INOUT : sel_7 
* INOUT : bl_out_0 
* INOUT : br_out_0 
* INOUT : bl_out_1 
* INOUT : br_out_1 
* INOUT : bl_out_2 
* INOUT : br_out_2 
* INOUT : bl_out_3 
* INOUT : br_out_3 
* INOUT : bl_out_4 
* INOUT : br_out_4 
* INOUT : bl_out_5 
* INOUT : br_out_5 
* INOUT : bl_out_6 
* INOUT : br_out_6 
* INOUT : bl_out_7 
* INOUT : br_out_7 
* INOUT : gnd 
* cols: 64 word_size: 8 bl: bl0 br: br0
XXMUX0
+ bl_0 br_0 bl_out_0 br_out_0 sel_0 gnd
+ myconfig_column_mux
XXMUX1
+ bl_1 br_1 bl_out_0 br_out_0 sel_1 gnd
+ myconfig_column_mux
XXMUX2
+ bl_2 br_2 bl_out_0 br_out_0 sel_2 gnd
+ myconfig_column_mux
XXMUX3
+ bl_3 br_3 bl_out_0 br_out_0 sel_3 gnd
+ myconfig_column_mux
XXMUX4
+ bl_4 br_4 bl_out_0 br_out_0 sel_4 gnd
+ myconfig_column_mux
XXMUX5
+ bl_5 br_5 bl_out_0 br_out_0 sel_5 gnd
+ myconfig_column_mux
XXMUX6
+ bl_6 br_6 bl_out_0 br_out_0 sel_6 gnd
+ myconfig_column_mux
XXMUX7
+ bl_7 br_7 bl_out_0 br_out_0 sel_7 gnd
+ myconfig_column_mux
XXMUX8
+ bl_8 br_8 bl_out_1 br_out_1 sel_0 gnd
+ myconfig_column_mux
XXMUX9
+ bl_9 br_9 bl_out_1 br_out_1 sel_1 gnd
+ myconfig_column_mux
XXMUX10
+ bl_10 br_10 bl_out_1 br_out_1 sel_2 gnd
+ myconfig_column_mux
XXMUX11
+ bl_11 br_11 bl_out_1 br_out_1 sel_3 gnd
+ myconfig_column_mux
XXMUX12
+ bl_12 br_12 bl_out_1 br_out_1 sel_4 gnd
+ myconfig_column_mux
XXMUX13
+ bl_13 br_13 bl_out_1 br_out_1 sel_5 gnd
+ myconfig_column_mux
XXMUX14
+ bl_14 br_14 bl_out_1 br_out_1 sel_6 gnd
+ myconfig_column_mux
XXMUX15
+ bl_15 br_15 bl_out_1 br_out_1 sel_7 gnd
+ myconfig_column_mux
XXMUX16
+ bl_16 br_16 bl_out_2 br_out_2 sel_0 gnd
+ myconfig_column_mux
XXMUX17
+ bl_17 br_17 bl_out_2 br_out_2 sel_1 gnd
+ myconfig_column_mux
XXMUX18
+ bl_18 br_18 bl_out_2 br_out_2 sel_2 gnd
+ myconfig_column_mux
XXMUX19
+ bl_19 br_19 bl_out_2 br_out_2 sel_3 gnd
+ myconfig_column_mux
XXMUX20
+ bl_20 br_20 bl_out_2 br_out_2 sel_4 gnd
+ myconfig_column_mux
XXMUX21
+ bl_21 br_21 bl_out_2 br_out_2 sel_5 gnd
+ myconfig_column_mux
XXMUX22
+ bl_22 br_22 bl_out_2 br_out_2 sel_6 gnd
+ myconfig_column_mux
XXMUX23
+ bl_23 br_23 bl_out_2 br_out_2 sel_7 gnd
+ myconfig_column_mux
XXMUX24
+ bl_24 br_24 bl_out_3 br_out_3 sel_0 gnd
+ myconfig_column_mux
XXMUX25
+ bl_25 br_25 bl_out_3 br_out_3 sel_1 gnd
+ myconfig_column_mux
XXMUX26
+ bl_26 br_26 bl_out_3 br_out_3 sel_2 gnd
+ myconfig_column_mux
XXMUX27
+ bl_27 br_27 bl_out_3 br_out_3 sel_3 gnd
+ myconfig_column_mux
XXMUX28
+ bl_28 br_28 bl_out_3 br_out_3 sel_4 gnd
+ myconfig_column_mux
XXMUX29
+ bl_29 br_29 bl_out_3 br_out_3 sel_5 gnd
+ myconfig_column_mux
XXMUX30
+ bl_30 br_30 bl_out_3 br_out_3 sel_6 gnd
+ myconfig_column_mux
XXMUX31
+ bl_31 br_31 bl_out_3 br_out_3 sel_7 gnd
+ myconfig_column_mux
XXMUX32
+ bl_32 br_32 bl_out_4 br_out_4 sel_0 gnd
+ myconfig_column_mux
XXMUX33
+ bl_33 br_33 bl_out_4 br_out_4 sel_1 gnd
+ myconfig_column_mux
XXMUX34
+ bl_34 br_34 bl_out_4 br_out_4 sel_2 gnd
+ myconfig_column_mux
XXMUX35
+ bl_35 br_35 bl_out_4 br_out_4 sel_3 gnd
+ myconfig_column_mux
XXMUX36
+ bl_36 br_36 bl_out_4 br_out_4 sel_4 gnd
+ myconfig_column_mux
XXMUX37
+ bl_37 br_37 bl_out_4 br_out_4 sel_5 gnd
+ myconfig_column_mux
XXMUX38
+ bl_38 br_38 bl_out_4 br_out_4 sel_6 gnd
+ myconfig_column_mux
XXMUX39
+ bl_39 br_39 bl_out_4 br_out_4 sel_7 gnd
+ myconfig_column_mux
XXMUX40
+ bl_40 br_40 bl_out_5 br_out_5 sel_0 gnd
+ myconfig_column_mux
XXMUX41
+ bl_41 br_41 bl_out_5 br_out_5 sel_1 gnd
+ myconfig_column_mux
XXMUX42
+ bl_42 br_42 bl_out_5 br_out_5 sel_2 gnd
+ myconfig_column_mux
XXMUX43
+ bl_43 br_43 bl_out_5 br_out_5 sel_3 gnd
+ myconfig_column_mux
XXMUX44
+ bl_44 br_44 bl_out_5 br_out_5 sel_4 gnd
+ myconfig_column_mux
XXMUX45
+ bl_45 br_45 bl_out_5 br_out_5 sel_5 gnd
+ myconfig_column_mux
XXMUX46
+ bl_46 br_46 bl_out_5 br_out_5 sel_6 gnd
+ myconfig_column_mux
XXMUX47
+ bl_47 br_47 bl_out_5 br_out_5 sel_7 gnd
+ myconfig_column_mux
XXMUX48
+ bl_48 br_48 bl_out_6 br_out_6 sel_0 gnd
+ myconfig_column_mux
XXMUX49
+ bl_49 br_49 bl_out_6 br_out_6 sel_1 gnd
+ myconfig_column_mux
XXMUX50
+ bl_50 br_50 bl_out_6 br_out_6 sel_2 gnd
+ myconfig_column_mux
XXMUX51
+ bl_51 br_51 bl_out_6 br_out_6 sel_3 gnd
+ myconfig_column_mux
XXMUX52
+ bl_52 br_52 bl_out_6 br_out_6 sel_4 gnd
+ myconfig_column_mux
XXMUX53
+ bl_53 br_53 bl_out_6 br_out_6 sel_5 gnd
+ myconfig_column_mux
XXMUX54
+ bl_54 br_54 bl_out_6 br_out_6 sel_6 gnd
+ myconfig_column_mux
XXMUX55
+ bl_55 br_55 bl_out_6 br_out_6 sel_7 gnd
+ myconfig_column_mux
XXMUX56
+ bl_56 br_56 bl_out_7 br_out_7 sel_0 gnd
+ myconfig_column_mux
XXMUX57
+ bl_57 br_57 bl_out_7 br_out_7 sel_1 gnd
+ myconfig_column_mux
XXMUX58
+ bl_58 br_58 bl_out_7 br_out_7 sel_2 gnd
+ myconfig_column_mux
XXMUX59
+ bl_59 br_59 bl_out_7 br_out_7 sel_3 gnd
+ myconfig_column_mux
XXMUX60
+ bl_60 br_60 bl_out_7 br_out_7 sel_4 gnd
+ myconfig_column_mux
XXMUX61
+ bl_61 br_61 bl_out_7 br_out_7 sel_5 gnd
+ myconfig_column_mux
XXMUX62
+ bl_62 br_62 bl_out_7 br_out_7 sel_6 gnd
+ myconfig_column_mux
XXMUX63
+ bl_63 br_63 bl_out_7 br_out_7 sel_7 gnd
+ myconfig_column_mux
.ENDS myconfig_column_mux_array
* Copyright 2020 The SkyWater PDK Authors
*
* Licensed under the Apache License, Version 2.0 (the "License");
* you may not use this file except in compliance with the License.
* You may obtain a copy of the License at
*
*     https://www.apache.org/licenses/LICENSE-2.0
*
* Unless required by applicable law or agreed to in writing, software
* distributed under the License is distributed on an "AS IS" BASIS,
* WITHOUT WARRANTIES OR CONDITIONS OF ANY KIND, either express or implied.
* See the License for the specific language governing permissions and
* limitations under the License.
*
* SPDX-License-Identifier: Apache-2.0

*********************** "sky130_fd_bd_sram__openram_write_driver" ******************************

.SUBCKT sky130_fd_bd_sram__openram_write_driver DIN BL BR EN VDD GND

**** Inverter to conver Data_in to data_in_bar ******
* din_bar = inv(DIN)
X_1 din_bar DIN GND GND sky130_fd_pr__nfet_01v8 W=0.36u L=0.15u m=1
X_2 din_bar DIN VDD VDD sky130_fd_pr__pfet_01v8 W=0.55u L=0.15u m=1

**** 2input nand gate follwed by inverter to drive BL ******
* din_bar_gated = nand(EN, DIN)
X_3 din_bar_gated EN net_7 GND sky130_fd_pr__nfet_01v8 W=0.55u L=0.15u m=1
X_4 net_7 DIN GND GND sky130_fd_pr__nfet_01v8 W=0.55u L=0.15u m=1
X_5 din_bar_gated EN VDD VDD sky130_fd_pr__pfet_01v8 W=0.55u L=0.15u m=1
X_6 din_bar_gated DIN VDD VDD sky130_fd_pr__pfet_01v8 W=0.55u L=0.15u m=1
* din_bar_gated_bar = inv(din_bar_gated)
X_7 din_bar_gated_bar din_bar_gated VDD VDD sky130_fd_pr__pfet_01v8 W=0.55u L=0.15u m=1
X_8 din_bar_gated_bar din_bar_gated GND GND sky130_fd_pr__nfet_01v8 W=0.36u L=0.15u m=1

**** 2input nand gate follwed by inverter to drive BR******
* din_gated = nand(EN, din_bar)
X_9 din_gated EN VDD VDD sky130_fd_pr__pfet_01v8 W=0.55u L=0.15u m=1
X_10 din_gated EN net_8 GND sky130_fd_pr__nfet_01v8 W=0.55u L=0.15u m=1
X_11 net_8 din_bar GND GND sky130_fd_pr__nfet_01v8 W=0.55u L=0.15u m=1
X_12 din_gated din_bar VDD VDD sky130_fd_pr__pfet_01v8 W=0.55u L=0.15u m=1
* din_gated_bar = inv(din_gated)
X_13 din_gated_bar din_gated VDD VDD sky130_fd_pr__pfet_01v8 W=0.55u L=0.15u m=1
X_14 din_gated_bar din_gated GND GND sky130_fd_pr__nfet_01v8 W=0.36u L=0.15u m=1

************************************************
* pull down with EN enable
X_15 BL din_gated_bar GND GND sky130_fd_pr__nfet_01v8 W=1u L=0.15u m=1
X_16 BR din_bar_gated_bar GND GND sky130_fd_pr__nfet_01v8 W=1u L=0.15u m=1

.ENDS sky130_fd_bd_sram__openram_write_driver

.SUBCKT myconfig_write_driver_array
+ data_0 data_1 data_2 data_3 data_4 data_5 data_6 data_7 bl_0 br_0 bl_1
+ br_1 bl_2 br_2 bl_3 br_3 bl_4 br_4 bl_5 br_5 bl_6 br_6 bl_7 br_7 en
+ vdd gnd
* INPUT : data_0 
* INPUT : data_1 
* INPUT : data_2 
* INPUT : data_3 
* INPUT : data_4 
* INPUT : data_5 
* INPUT : data_6 
* INPUT : data_7 
* OUTPUT: bl_0 
* OUTPUT: br_0 
* OUTPUT: bl_1 
* OUTPUT: br_1 
* OUTPUT: bl_2 
* OUTPUT: br_2 
* OUTPUT: bl_3 
* OUTPUT: br_3 
* OUTPUT: bl_4 
* OUTPUT: br_4 
* OUTPUT: bl_5 
* OUTPUT: br_5 
* OUTPUT: bl_6 
* OUTPUT: br_6 
* OUTPUT: bl_7 
* OUTPUT: br_7 
* INPUT : en 
* POWER : vdd 
* GROUND: gnd 
* word_size 8
Xwrite_driver0
+ data_0 bl_0 br_0 en vdd gnd
+ sky130_fd_bd_sram__openram_write_driver
Xwrite_driver8
+ data_1 bl_1 br_1 en vdd gnd
+ sky130_fd_bd_sram__openram_write_driver
Xwrite_driver16
+ data_2 bl_2 br_2 en vdd gnd
+ sky130_fd_bd_sram__openram_write_driver
Xwrite_driver24
+ data_3 bl_3 br_3 en vdd gnd
+ sky130_fd_bd_sram__openram_write_driver
Xwrite_driver32
+ data_4 bl_4 br_4 en vdd gnd
+ sky130_fd_bd_sram__openram_write_driver
Xwrite_driver40
+ data_5 bl_5 br_5 en vdd gnd
+ sky130_fd_bd_sram__openram_write_driver
Xwrite_driver48
+ data_6 bl_6 br_6 en vdd gnd
+ sky130_fd_bd_sram__openram_write_driver
Xwrite_driver56
+ data_7 bl_7 br_7 en vdd gnd
+ sky130_fd_bd_sram__openram_write_driver
.ENDS myconfig_write_driver_array
* Copyright 2020 The SkyWater PDK Authors
*
* Licensed under the Apache License, Version 2.0 (the "License");
* you may not use this file except in compliance with the License.
* You may obtain a copy of the License at
*
*     https://www.apache.org/licenses/LICENSE-2.0
*
* Unless required by applicable law or agreed to in writing, software
* distributed under the License is distributed on an "AS IS" BASIS,
* WITHOUT WARRANTIES OR CONDITIONS OF ANY KIND, either express or implied.
* See the License for the specific language governing permissions and
* limitations under the License.
*
* SPDX-License-Identifier: Apache-2.0

*********************** "sky130_fd_bd_sram__openram_sense_amp" ******************************

.SUBCKT sky130_fd_bd_sram__openram_sense_amp BL BR DOUT EN VDD GND
X1000 GND EN a_56_432# GND sky130_fd_pr__nfet_01v8 W=0.65u L=0.15u m=1
X1001 a_56_432# dint_bar dint GND sky130_fd_pr__nfet_01v8 W=0.65u L=0.15u m=1
X1002 dint_bar dint a_56_432# GND sky130_fd_pr__nfet_01v8 W=0.65u L=0.15u m=1

X1003 VDD dint_bar dint VDD sky130_fd_pr__pfet_01v8 W=1.26u L=0.15u m=1
X1004 dint_bar dint VDD VDD sky130_fd_pr__pfet_01v8 W=1.26u L=0.15u m=1

X1005 BL EN dint VDD sky130_fd_pr__pfet_01v8 W=2u L=0.15u m=1
X1006 dint_bar EN BR VDD sky130_fd_pr__pfet_01v8 W=2u L=0.15u m=1

X1007 VDD dint_bar DOUT VDD sky130_fd_pr__pfet_01v8 W=1.26u L=0.15u m=1
X1008 DOUT dint_bar GND GND sky130_fd_pr__nfet_01v8 W=0.65u L=0.15u m=1

.ENDS sky130_fd_bd_sram__openram_sense_amp

.SUBCKT myconfig_sense_amp_array
+ data_0 bl_0 br_0 data_1 bl_1 br_1 data_2 bl_2 br_2 data_3 bl_3 br_3
+ data_4 bl_4 br_4 data_5 bl_5 br_5 data_6 bl_6 br_6 data_7 bl_7 br_7 en
+ vdd gnd
* OUTPUT: data_0 
* INPUT : bl_0 
* INPUT : br_0 
* OUTPUT: data_1 
* INPUT : bl_1 
* INPUT : br_1 
* OUTPUT: data_2 
* INPUT : bl_2 
* INPUT : br_2 
* OUTPUT: data_3 
* INPUT : bl_3 
* INPUT : br_3 
* OUTPUT: data_4 
* INPUT : bl_4 
* INPUT : br_4 
* OUTPUT: data_5 
* INPUT : bl_5 
* INPUT : br_5 
* OUTPUT: data_6 
* INPUT : bl_6 
* INPUT : br_6 
* OUTPUT: data_7 
* INPUT : bl_7 
* INPUT : br_7 
* INPUT : en 
* POWER : vdd 
* GROUND: gnd 
* words_per_row: 8
Xsa_d0
+ bl_0 br_0 data_0 en vdd gnd
+ sky130_fd_bd_sram__openram_sense_amp
Xsa_d1
+ bl_1 br_1 data_1 en vdd gnd
+ sky130_fd_bd_sram__openram_sense_amp
Xsa_d2
+ bl_2 br_2 data_2 en vdd gnd
+ sky130_fd_bd_sram__openram_sense_amp
Xsa_d3
+ bl_3 br_3 data_3 en vdd gnd
+ sky130_fd_bd_sram__openram_sense_amp
Xsa_d4
+ bl_4 br_4 data_4 en vdd gnd
+ sky130_fd_bd_sram__openram_sense_amp
Xsa_d5
+ bl_5 br_5 data_5 en vdd gnd
+ sky130_fd_bd_sram__openram_sense_amp
Xsa_d6
+ bl_6 br_6 data_6 en vdd gnd
+ sky130_fd_bd_sram__openram_sense_amp
Xsa_d7
+ bl_7 br_7 data_7 en vdd gnd
+ sky130_fd_bd_sram__openram_sense_amp
.ENDS myconfig_sense_amp_array

.SUBCKT myconfig_port_data
+ rbl_bl rbl_br bl_0 br_0 bl_1 br_1 bl_2 br_2 bl_3 br_3 bl_4 br_4 bl_5
+ br_5 bl_6 br_6 bl_7 br_7 bl_8 br_8 bl_9 br_9 bl_10 br_10 bl_11 br_11
+ bl_12 br_12 bl_13 br_13 bl_14 br_14 bl_15 br_15 bl_16 br_16 bl_17
+ br_17 bl_18 br_18 bl_19 br_19 bl_20 br_20 bl_21 br_21 bl_22 br_22
+ bl_23 br_23 bl_24 br_24 bl_25 br_25 bl_26 br_26 bl_27 br_27 bl_28
+ br_28 bl_29 br_29 bl_30 br_30 bl_31 br_31 bl_32 br_32 bl_33 br_33
+ bl_34 br_34 bl_35 br_35 bl_36 br_36 bl_37 br_37 bl_38 br_38 bl_39
+ br_39 bl_40 br_40 bl_41 br_41 bl_42 br_42 bl_43 br_43 bl_44 br_44
+ bl_45 br_45 bl_46 br_46 bl_47 br_47 bl_48 br_48 bl_49 br_49 bl_50
+ br_50 bl_51 br_51 bl_52 br_52 bl_53 br_53 bl_54 br_54 bl_55 br_55
+ bl_56 br_56 bl_57 br_57 bl_58 br_58 bl_59 br_59 bl_60 br_60 bl_61
+ br_61 bl_62 br_62 bl_63 br_63 dout_0 dout_1 dout_2 dout_3 dout_4
+ dout_5 dout_6 dout_7 din_0 din_1 din_2 din_3 din_4 din_5 din_6 din_7
+ sel_0 sel_1 sel_2 sel_3 sel_4 sel_5 sel_6 sel_7 s_en p_en_bar w_en vdd
+ gnd
* INOUT : rbl_bl 
* INOUT : rbl_br 
* INOUT : bl_0 
* INOUT : br_0 
* INOUT : bl_1 
* INOUT : br_1 
* INOUT : bl_2 
* INOUT : br_2 
* INOUT : bl_3 
* INOUT : br_3 
* INOUT : bl_4 
* INOUT : br_4 
* INOUT : bl_5 
* INOUT : br_5 
* INOUT : bl_6 
* INOUT : br_6 
* INOUT : bl_7 
* INOUT : br_7 
* INOUT : bl_8 
* INOUT : br_8 
* INOUT : bl_9 
* INOUT : br_9 
* INOUT : bl_10 
* INOUT : br_10 
* INOUT : bl_11 
* INOUT : br_11 
* INOUT : bl_12 
* INOUT : br_12 
* INOUT : bl_13 
* INOUT : br_13 
* INOUT : bl_14 
* INOUT : br_14 
* INOUT : bl_15 
* INOUT : br_15 
* INOUT : bl_16 
* INOUT : br_16 
* INOUT : bl_17 
* INOUT : br_17 
* INOUT : bl_18 
* INOUT : br_18 
* INOUT : bl_19 
* INOUT : br_19 
* INOUT : bl_20 
* INOUT : br_20 
* INOUT : bl_21 
* INOUT : br_21 
* INOUT : bl_22 
* INOUT : br_22 
* INOUT : bl_23 
* INOUT : br_23 
* INOUT : bl_24 
* INOUT : br_24 
* INOUT : bl_25 
* INOUT : br_25 
* INOUT : bl_26 
* INOUT : br_26 
* INOUT : bl_27 
* INOUT : br_27 
* INOUT : bl_28 
* INOUT : br_28 
* INOUT : bl_29 
* INOUT : br_29 
* INOUT : bl_30 
* INOUT : br_30 
* INOUT : bl_31 
* INOUT : br_31 
* INOUT : bl_32 
* INOUT : br_32 
* INOUT : bl_33 
* INOUT : br_33 
* INOUT : bl_34 
* INOUT : br_34 
* INOUT : bl_35 
* INOUT : br_35 
* INOUT : bl_36 
* INOUT : br_36 
* INOUT : bl_37 
* INOUT : br_37 
* INOUT : bl_38 
* INOUT : br_38 
* INOUT : bl_39 
* INOUT : br_39 
* INOUT : bl_40 
* INOUT : br_40 
* INOUT : bl_41 
* INOUT : br_41 
* INOUT : bl_42 
* INOUT : br_42 
* INOUT : bl_43 
* INOUT : br_43 
* INOUT : bl_44 
* INOUT : br_44 
* INOUT : bl_45 
* INOUT : br_45 
* INOUT : bl_46 
* INOUT : br_46 
* INOUT : bl_47 
* INOUT : br_47 
* INOUT : bl_48 
* INOUT : br_48 
* INOUT : bl_49 
* INOUT : br_49 
* INOUT : bl_50 
* INOUT : br_50 
* INOUT : bl_51 
* INOUT : br_51 
* INOUT : bl_52 
* INOUT : br_52 
* INOUT : bl_53 
* INOUT : br_53 
* INOUT : bl_54 
* INOUT : br_54 
* INOUT : bl_55 
* INOUT : br_55 
* INOUT : bl_56 
* INOUT : br_56 
* INOUT : bl_57 
* INOUT : br_57 
* INOUT : bl_58 
* INOUT : br_58 
* INOUT : bl_59 
* INOUT : br_59 
* INOUT : bl_60 
* INOUT : br_60 
* INOUT : bl_61 
* INOUT : br_61 
* INOUT : bl_62 
* INOUT : br_62 
* INOUT : bl_63 
* INOUT : br_63 
* OUTPUT: dout_0 
* OUTPUT: dout_1 
* OUTPUT: dout_2 
* OUTPUT: dout_3 
* OUTPUT: dout_4 
* OUTPUT: dout_5 
* OUTPUT: dout_6 
* OUTPUT: dout_7 
* INPUT : din_0 
* INPUT : din_1 
* INPUT : din_2 
* INPUT : din_3 
* INPUT : din_4 
* INPUT : din_5 
* INPUT : din_6 
* INPUT : din_7 
* INPUT : sel_0 
* INPUT : sel_1 
* INPUT : sel_2 
* INPUT : sel_3 
* INPUT : sel_4 
* INPUT : sel_5 
* INPUT : sel_6 
* INPUT : sel_7 
* INPUT : s_en 
* INPUT : p_en_bar 
* INPUT : w_en 
* POWER : vdd 
* GROUND: gnd 
Xprecharge_array0
+ rbl_bl rbl_br bl_0 br_0 bl_1 br_1 bl_2 br_2 bl_3 br_3 bl_4 br_4 bl_5
+ br_5 bl_6 br_6 bl_7 br_7 bl_8 br_8 bl_9 br_9 bl_10 br_10 bl_11 br_11
+ bl_12 br_12 bl_13 br_13 bl_14 br_14 bl_15 br_15 bl_16 br_16 bl_17