* Copyright 2020 The SkyWater PDK Authors
*
* Licensed under the Apache License, Version 2.0 (the "License");
* you may not use this file except in compliance with the License.
* You may obtain a copy of the License at
*
*     https://www.apache.org/licenses/LICENSE-2.0
*
* Unless required by applicable law or agreed to in writing, software
* distributed under the License is distributed on an "AS IS" BASIS,
* WITHOUT WARRANTIES OR CONDITIONS OF ANY KIND, either express or implied.
* See the License for the specific language governing permissions and
* limitations under the License.

* SKY130 Spice File.
.param sky130_fd_pr__pfet_01v8_hvt__toxe_slope_spectre = 0.0
.param sky130_fd_pr__pfet_01v8_hvt__vth0_slope_spectre = 0.0
.param sky130_fd_pr__pfet_01v8_hvt__voff_slope_spectre = 0.0
.param sky130_fd_pr__pfet_01v8_hvt__nfactor_slope_spectre = 0.0
* statistics {
*   process {
*   }
*   mismatch {
*     vary sky130_fd_pr__pfet_01v8_hvt__toxe_slope_spectre dist=gauss std = 1.0
*     vary sky130_fd_pr__pfet_01v8_hvt__vth0_slope_spectre dist=gauss std = 1.0
*     vary sky130_fd_pr__pfet_01v8_hvt__voff_slope_spectre dist=gauss std = 1.0
*     vary sky130_fd_pr__pfet_01v8_hvt__nfactor_slope_spectre dist=gauss std = 1.0
*   }
* }
.subckt  sky130_fd_pr__pfet_01v8_hvt d g s b
+ 
.param  l = 1 w = 1 ad = 0 as = 0 pd = 0 ps = 0 nrd = 0 nrs = 0 sa = 0 sb = 0 sd = 0 mult = 1 nf = 1.0
msky130_fd_pr__pfet_01v8_hvt d g s b sky130_fd_pr__pfet_01v8_hvt__model l = {l} w = {w} ad = {ad} as = {as} pd = {pd} ps = {ps} nrd = {nrd} nrs = {nrs} sa = {sa} sb = {sb} sd = {sd} nf = {nf}
.model sky130_fd_pr__pfet_01v8_hvt__model.0 pmos
* Model Flag Parameters
+ lmin = 2.0e-05 lmax = 0.0001 wmin = 7.0e-06 wmax = 0.0001
+ level = 54.0
+ version = 4.5
+ binunit = 2.0
+ mobmod = 0.0
+ capmod = 2.0
+ igcmod = 0.0
+ igbmod = 0.0
+ geomod = 0.0
+ diomod = 1.0
+ rdsmod = 0.0
+ rbodymod = 1.0
+ rgatemod = 0.0
+ permod = 1.0
+ acnqsmod = 0.0
+ trnqsmod = 0.0
+ fnoimod = 1.0
+ tnoimod = 1.0
+ tempmod = 0.0
* Process Parameters
+ toxe = {4.23e-09+sky130_fd_pr__pfet_01v8_hvt__toxe_slope_spectre*(4.23e-09*1.0*(sky130_fd_pr__pfet_01v8_hvt__toxe_slope/sqrt(l*w*mult)))}
+ toxm = 4.23e-9
+ dtox = 0.0
+ epsrox = 3.9
+ xj = 1.5e-7
+ ngate = 1.0e+23
+ ndep = 1.7e+17
+ nsd = 1.0e+20
+ rsh = 1.0
+ rshg = 0.1
* Basic Model Parameters
+ wint = 9.364e-9
+ lint = -1.176e-8
+ vth0 = {-1.1148088+sky130_fd_pr__pfet_01v8_hvt__vth0_slope_spectre*(sky130_fd_pr__pfet_01v8_hvt__vth0_slope/sqrt(l*w*mult))}
+ k1 = 0.43657182
+ k2 = 0.029941288
+ k3 = -13.778
+ k3b = 2.0
+ w0 = 0.0
+ dvt0 = 4.05
+ dvt1 = 0.3
+ dvt2 = 0.03
+ dvt0w = -4.254
+ dvt1w = 1147200.0
+ dvt2w = -0.00896
+ dsub = 0.56
+ minv = 0.0
+ voffl = 0.0
+ lpe0 = 0.0
+ lpeb = 0.0
+ vbm = -3.0
+ dvtp0 = 0.0
+ dvtp1 = 0.0
+ phin = 0.0
+ cdsc = 0.0
+ cdscb = 0.0
+ cdscd = 0.0
+ cit = 1.0e-5
+ voff = {-0.19592208+sky130_fd_pr__pfet_01v8_hvt__voff_slope_spectre*(sky130_fd_pr__pfet_01v8_hvt__voff_slope/sqrt(l*w*mult))}
+ nfactor = {2.4926776+sky130_fd_pr__pfet_01v8_hvt__nfactor_slope_spectre*(sky130_fd_pr__pfet_01v8_hvt__nfactor_slope/sqrt(l*w*mult))}
+ eta0 = 0.08
+ etab = -0.07
+ u0 = 0.012121798
+ ua = -2.3807897e-10
+ ub = 8.2326173e-19
+ uc = -7.7670696e-11
+ ud = 0.0
+ up = 0.0
+ lp = 1.0
+ eu = 1.67
+ vtl = 0.0
+ xn = 3.0
+ vsat = 200000.0
+ a0 = 1.4973397
+ ags = 0.3863522
+ a1 = 0.0
+ a2 = 1.0
+ b0 = 0.0
+ b1 = 0.0
+ keta = -0.013169082
+ dwg = -5.722e-9
+ dwb = -1.7864e-8
+ pclm = 0.075489662
+ pdiblc1 = 0.39
+ pdiblc2 = 0.0036275994
+ pdiblcb = -9.5744039e-5
+ drout = 0.56
+ pscbe1 = 746475130.0
+ pscbe2 = 9.5049925e-9
+ pvag = 0.0
+ delta = 0.01
+ fprout = 0.0
+ pdits = 0.0
+ pditsl = 0.0
+ pditsd = 0.0
+ lambda = 0.0
+ lc = 5.0e-9
* Parameters FOR Asymmetric AND Bias-Dependent RDS Model
+ rdsw = 531.92
+ rsw = 0.0
+ rdw = 0.0
+ rdswmin = 0.0
+ rdwmin = 0.0
+ rswmin = 0.0
+ prwb = -0.32348
+ prwg = 0.02
+ wr = 1.0
* Impact Ionization Current Model Parameters
+ alpha0 = 1.0e-10
+ alpha1 = 1.0e-10
+ beta0 = 4.7923891
* Gidl Induced Drain Leakage Model Parameters
+ agidl = 9.33252e-11
+ bgidl = 1154444600.0
+ cgidl = 300.0
+ egidl = 0.1
* Gate Dielectric Tunneling Current Model Parameters
+ toxref = 4.23e-9
+ dlcig = 0.0
+ aigbacc = 0.43
+ bigbacc = 0.054
+ cigbacc = 0.075
+ nigbacc = 1.0
+ aigbinv = 0.35
+ bigbinv = 0.03
+ cigbinv = 0.006
+ eigbinv = 1.1
+ nigbinv = 3.0
+ aigc = 0.43
+ bigc = 0.054
+ cigc = 0.075
+ aigsd = 0.43
+ bigsd = 0.054
+ cigsd = 0.075
+ nigc = 1.0
+ poxedge = 1.0
+ pigcd = 1.0
+ ntox = 1.0
+ vfbsdoff = 0.0
* Charge AND Capacitance Model Parameters
+ dlc = -2.56e-9
+ dwc = 0.0
+ xpart = 0.0
+ cgso = 5.93202e-11
+ cgdo = 5.93202e-11
+ cgbo = 0.0
+ cgdl = 7.513892e-12
+ cgsl = 7.513892e-12
+ clc = 1.0e-7
+ cle = 0.6
+ cf = 1.2e-11
+ ckappas = 0.6
+ vfbcv = -0.1446893
+ acde = 0.552
+ moin = 14.504
+ noff = 4.0
+ voffcv = -0.1375
* High-Speed/RF Model Parameters
+ xrcrg1 = 12.0
+ xrcrg2 = 1.0
+ rbpb = 50.0
+ rbpd = 50.0
+ rbps = 50.0
+ rbdb = 50.0
+ rbsb = 50.0
+ gbmin = 1.0e-12
* Flicker AND Thermal Noise Model Parameters
+ ef = 0.88
+ noia = 1.2e+41
+ noib = 2.0e+25
+ noic = 0.0
+ em = 41000000.0
+ ntnoi = 1.0
+ lintnoi = -6.0e-8
+ af = 1.0
+ kf = 0.0
+ tnoia = 1.5
+ tnoib = 3.5
+ rnoia = 0.577
+ rnoib = 0.37
* Layout-Dependent Parasitics Model Parameters
+ xl = 0.0
+ xw = 0.0
+ dmcg = 0.0
+ dmdg = 0.0
+ dmcgt = 0.0
+ xgw = 0.0
+ xgl = 0.0
+ ngcon = 1.0
* Asymmetric Source/Drain Junction Diode Model Parameters
+ jss = 2.17e-5
+ jsws = 8.2e-10
+ ijthsfwd = 0.1
+ ijthsrev = 0.1
+ bvs = 12.8
+ xjbvs = 1.0
+ pbs = 0.6587
+ cjs = 0.0007432633326
+ mjs = 0.34629
+ pbsws = 0.7418
+ cjsws = 9.5078641e-11
+ mjsws = 0.26859
+ pbswgs = 1.3925
+ cjswgs = 2.54074486e-10
+ mjswgs = 0.70393
* Temperature Dependence Parameters
+ tnom = 30.0
+ kt1 = -0.44169
+ kt2 = -0.037961
+ at = 0.0
+ ute = -0.30066
+ ua1 = 2.2116e-9
+ ub1 = -7.9359e-19
+ uc1 = 1.1985e-10
+ kt1l = 0.0
+ prt = 0.0
+ tvoff = 0.0
+ njs = 1.2556
+ tpb = 0.0019551
+ tcj = 0.0012407
+ tpbsw = 0.00014242
+ tcjsw = 0.0
+ tpbswg = 0.0
+ tcjswg = 2.0e-12
+ xtis = 2.0
+ tvfbsdoff = 0.0
* DW AND DL Parameters
+ ll = 0.0
+ wl = 0.0
+ lln = 1.0
+ wln = 1.0
+ lw = 0.0
+ ww = 0.0
+ lwn = 1.0
+ wwn = 1.0
+ lwl = 0.0
+ wwl = 0.0
+ llc = 0.0
+ wlc = 0.0
+ lwc = 0.0
+ wwc = 0.0
+ lwlc = 0.0
+ wwlc = 0.0
* Stress Parameters
+ saref = 3.0e-6
+ sbref = 3.0e-6
+ kvth0 = 2.65e-8
+ lkvth0 = 0.0
+ wkvth0 = 2.5e-7
+ pkvth0 = 0.0
+ llodvth = 0.0
+ wlodvth = 1.0
+ wlod = 0.0
+ stk2 = 0.0
+ lodk2 = 1.0
+ lodeta0 = 1.0
+ ku0 = 4.5e-8
+ lku0 = 0.0
+ wku0 = 2.5e-7
+ pku0 = 0.0
+ tku0 = 0.0
+ llodku0 = 0.0
+ wlodku0 = 1.0
+ kvsat = 0.4
+ steta0 = 0.0
* Well Proximity Effect Parameters
.model sky130_fd_pr__pfet_01v8_hvt__model.1 pmos
* Model Flag Parameters
+ lmin = 8.0e-06 lmax = 2.0e-05 wmin = 7.0e-06 wmax = 0.0001
+ level = 54.0
+ version = 4.5
+ binunit = 2.0
+ mobmod = 0.0
+ capmod = 2.0
+ igcmod = 0.0
+ igbmod = 0.0
+ geomod = 0.0
+ diomod = 1.0
+ rdsmod = 0.0
+ rbodymod = 1.0
+ rgatemod = 0.0
+ permod = 1.0
+ acnqsmod = 0.0
+ trnqsmod = 0.0
+ fnoimod = 1.0
+ tnoimod = 1.0
+ tempmod = 0.0
* Process Parameters
+ toxe = {4.23e-09+sky130_fd_pr__pfet_01v8_hvt__toxe_slope_spectre*(4.23e-09*1.0*(sky130_fd_pr__pfet_01v8_hvt__toxe_slope/sqrt(l*w*mult)))}
+ toxm = 4.23e-9
+ dtox = 0.0
+ epsrox = 3.9
+ xj = 1.5e-7
+ ngate = 1.0e+23
+ ndep = 1.7e+17
+ nsd = 1.0e+20
+ rsh = 1.0
+ rshg = 0.1
* Basic Model Parameters
+ wint = 9.364e-9
+ lint = -1.176e-8
+ vth0 = {-1.1148088+sky130_fd_pr__pfet_01v8_hvt__vth0_slope_spectre*(sky130_fd_pr__pfet_01v8_hvt__vth0_slope/sqrt(l*w*mult))}
+ k1 = 0.43657182
+ k2 = 0.029941288
+ k3 = -13.778
+ k3b = 2.0
+ w0 = 0.0
+ dvt0 = 4.05
+ dvt1 = 0.3
+ dvt2 = 0.03
+ dvt0w = -4.254
+ dvt1w = 1147200.0
+ dvt2w = -0.00896
+ dsub = 0.56
+ minv = 0.0
+ voffl = 0.0
+ lpe0 = 0.0
+ lpeb = 0.0
+ vbm = -3.0
+ dvtp0 = 0.0
+ dvtp1 = 0.0
+ phin = 0.0
+ cdsc = 0.0
+ cdscb = 0.0
+ cdscd = 0.0
+ cit = 1.0e-5
+ voff = {-0.19592208+sky130_fd_pr__pfet_01v8_hvt__voff_slope_spectre*(sky130_fd_pr__pfet_01v8_hvt__voff_slope/sqrt(l*w*mult))}
+ nfactor = {2.4926776+sky130_fd_pr__pfet_01v8_hvt__nfactor_slope_spectre*(sky130_fd_pr__pfet_01v8_hvt__nfactor_slope/sqrt(l*w*mult))}
+ eta0 = 0.08
+ etab = -0.07
+ u0 = 0.012121798
+ ua = -2.3807897e-10
+ ub = 8.2326173e-19
+ uc = -7.7670696e-11
+ ud = 0.0
+ up = 0.0
+ lp = 1.0
+ eu = 1.67
+ vtl = 0.0
+ xn = 3.0
+ vsat = 200000.0
+ a0 = 1.4973397
+ ags = 0.3863522
+ a1 = 0.0
+ a2 = 1.0
+ b0 = 0.0
+ b1 = 0.0
+ keta = -0.013169082
+ dwg = -5.722e-9
+ dwb = -1.7864e-8
+ pclm = 0.075489662
+ pdiblc1 = 0.39
+ pdiblc2 = 0.0036275994
+ pdiblcb = -9.5744039e-5
+ drout = 0.56
+ pscbe1 = 746475130.0
+ pscbe2 = 9.5049925e-9
+ pvag = 0.0
+ delta = 0.01
+ fprout = 0.0
+ pdits = 0.0
+ pditsl = 0.0
+ pditsd = 0.0
+ lambda = 0.0
+ lc = 5.0e-9
* Parameters FOR Asymmetric AND Bias-Dependent RDS Model
+ rdsw = 531.92
+ rsw = 0.0
+ rdw = 0.0
+ rdswmin = 0.0
+ rdwmin = 0.0
+ rswmin = 0.0
+ prwb = -0.32348
+ prwg = 0.02
+ wr = 1.0
* Impact Ionization Current Model Parameters
+ alpha0 = 1.0e-10
+ alpha1 = 1.0e-10
+ beta0 = 4.7923891
* Gidl Induced Drain Leakage Model Parameters
+ agidl = 9.33252e-11
+ bgidl = 1154444600.0
+ cgidl = 300.0
+ egidl = 0.1
* Gate Dielectric Tunneling Current Model Parameters
+ toxref = 4.23e-9
+ dlcig = 0.0
+ aigbacc = 0.43
+ bigbacc = 0.054
+ cigbacc = 0.075
+ nigbacc = 1.0
+ aigbinv = 0.35
+ bigbinv = 0.03
+ cigbinv = 0.006
+ eigbinv = 1.1
+ nigbinv = 3.0
+ aigc = 0.43
+ bigc = 0.054
+ cigc = 0.075
+ aigsd = 0.43
+ bigsd = 0.054
+ cigsd = 0.075
+ nigc = 1.0
+ poxedge = 1.0
+ pigcd = 1.0
+ ntox = 1.0
+ vfbsdoff = 0.0
* Charge AND Capacitance Model Parameters
+ dlc = -2.56e-9
+ dwc = 0.0
+ xpart = 0.0
+ cgso = 5.93202e-11
+ cgdo = 5.93202e-11
+ cgbo = 0.0
+ cgdl = 7.513892e-12
+ cgsl = 7.513892e-12
+ clc = 1.0e-7
+ cle = 0.6
+ cf = 1.2e-11
+ ckappas = 0.6
+ vfbcv = -0.1446893
+ acde = 0.552
+ moin = 14.504
+ noff = 4.0
+ voffcv = -0.1375
* High-Speed/RF Model Parameters
+ xrcrg1 = 12.0
+ xrcrg2 = 1.0
+ rbpb = 50.0
+ rbpd = 50.0
+ rbps = 50.0
+ rbdb = 50.0
+ rbsb = 50.0
+ gbmin = 1.0e-12
* Flicker AND Thermal Noise Model Parameters
+ ef = 0.88
+ noia = 1.2e+41
+ noib = 2.0e+25
+ noic = 0.0
+ em = 41000000.0
+ ntnoi = 1.0
+ lintnoi = -6.0e-8
+ af = 1.0
+ kf = 0.0
+ tnoia = 1.5
+ tnoib = 3.5
+ rnoia = 0.577
+ rnoib = 0.37
* Layout-Dependent Parasitics Model Parameters
+ xl = 0.0
+ xw = 0.0
+ dmcg = 0.0
+ dmdg = 0.0
+ dmcgt = 0.0
+ xgw = 0.0
+ xgl = 0.0
+ ngcon = 1.0
* Asymmetric Source/Drain Junction Diode Model Parameters
+ jss = 2.17e-5
+ jsws = 8.2e-10
+ ijthsfwd = 0.1
+ ijthsrev = 0.1
+ bvs = 12.8
+ xjbvs = 1.0
+ pbs = 0.6587
+ cjs = 0.0007432633326
+ mjs = 0.34629
+ pbsws = 0.7418
+ cjsws = 9.5078641e-11
+ mjsws = 0.26859
+ pbswgs = 1.3925
+ cjswgs = 2.54074486e-10
+ mjswgs = 0.70393
* Temperature Dependence Parameters
+ tnom = 30.0
+ kt1 = -0.44169
+ kt2 = -0.037961
+ at = 0.0
+ ute = -0.30066
+ ua1 = 2.2116e-9
+ ub1 = -7.9359e-19
+ uc1 = 1.1985e-10
+ kt1l = 0.0
+ prt = 0.0
+ tvoff = 0.0
+ njs = 1.2556
+ tpb = 0.0019551
+ tcj = 0.0012407
+ tpbsw = 0.00014242
+ tcjsw = 0.0
+ tpbswg = 0.0
+ tcjswg = 2.0e-12
+ xtis = 2.0
+ tvfbsdoff = 0.0
* DW AND DL Parameters
+ ll = 0.0
+ wl = 0.0
+ lln = 1.0
+ wln = 1.0
+ lw = 0.0
+ ww = 0.0
+ lwn = 1.0
+ wwn = 1.0
+ lwl = 0.0
+ wwl = 0.0
+ llc = 0.0
+ wlc = 0.0
+ lwc = 0.0
+ wwc = 0.0
+ lwlc = 0.0
+ wwlc = 0.0
* Stress Parameters
+ saref = 3.0e-6
+ sbref = 3.0e-6
+ kvth0 = 2.65e-8
+ lkvth0 = 0.0
+ wkvth0 = 2.5e-7
+ pkvth0 = 0.0
+ llodvth = 0.0
+ wlodvth = 1.0
+ wlod = 0.0
+ stk2 = 0.0
+ lodk2 = 1.0
+ lodeta0 = 1.0
+ ku0 = 4.5e-8
+ lku0 = 0.0
+ wku0 = 2.5e-7
+ pku0 = 0.0
+ tku0 = 0.0
+ llodku0 = 0.0
+ wlodku0 = 1.0
+ kvsat = 0.4
+ steta0 = 0.0
* Well Proximity Effect Parameters
.model sky130_fd_pr__pfet_01v8_hvt__model.2 pmos
* Model Flag Parameters
+ lmin = 4.0e-06 lmax = 8.0e-06 wmin = 7.0e-06 wmax = 0.0001
+ level = 54.0
+ version = 4.5
+ binunit = 2.0
+ mobmod = 0.0
+ capmod = 2.0
+ igcmod = 0.0
+ igbmod = 0.0
+ geomod = 0.0
+ diomod = 1.0
+ rdsmod = 0.0
+ rbodymod = 1.0
+ rgatemod = 0.0
+ permod = 1.0
+ acnqsmod = 0.0
+ trnqsmod = 0.0
+ fnoimod = 1.0
+ tnoimod = 1.0
+ tempmod = 0.0
* Process Parameters
+ toxe = {4.23e-09+sky130_fd_pr__pfet_01v8_hvt__toxe_slope_spectre*(4.23e-09*1.0*(sky130_fd_pr__pfet_01v8_hvt__toxe_slope/sqrt(l*w*mult)))}
+ toxm = 4.23e-9
+ dtox = 0.0
+ epsrox = 3.9
+ xj = 1.5e-7
+ ngate = 1.0e+23
+ ndep = 1.7e+17
+ nsd = 1.0e+20
+ rsh = 1.0
+ rshg = 0.1
* Basic Model Parameters
+ wint = 9.364e-9
+ lint = -1.176e-8
+ vth0 = {-1.114178603e+00+sky130_fd_pr__pfet_01v8_hvt__vth0_slope_spectre*(sky130_fd_pr__pfet_01v8_hvt__vth0_slope/sqrt(l*w*mult))} lvth0 = -5.056396284e-09 wvth0 = -6.300787338e-08 pvth0 = 5.055449322e-13
+ k1 = 4.360520813e-01 lk1 = 4.170133487e-09 wk1 = 5.196413176e-08 pk1 = -4.169352504e-13
+ k2 = 3.027896986e-02 lk2 = -2.709397187e-09 wk2 = -3.376186226e-08 pk2 = 2.708889771e-13
+ k3 = -13.778
+ k3b = 2.0
+ w0 = 0.0
+ dvt0 = 4.05
+ dvt1 = 0.3
+ dvt2 = 0.03
+ dvt0w = -4.254
+ dvt1w = 1147200.0
+ dvt2w = -0.00896
+ dsub = 0.56
+ minv = 0.0
+ voffl = 0.0
+ lpe0 = 0.0
+ lpeb = 0.0
+ vbm = -3.0
+ dvtp0 = 0.0
+ dvtp1 = 0.0
+ phin = 0.0
+ cdsc = 0.0
+ cdscb = 0.0
+ cdscd = 0.0
+ cit = 1.0e-5
+ voff = {-1.957720726e-01+sky130_fd_pr__pfet_01v8_hvt__voff_slope_spectre*(sky130_fd_pr__pfet_01v8_hvt__voff_slope/sqrt(l*w*mult))} lvoff = -1.203587106e-09 wvoff = -1.499792732e-08 pvoff = 1.203361698e-13
+ nfactor = {2.490113924e+00+sky130_fd_pr__pfet_01v8_hvt__nfactor_slope_spectre*(sky130_fd_pr__pfet_01v8_hvt__nfactor_slope/sqrt(l*w*mult))} lnfactor = 2.056970604e-08 wnfactor = 2.563195923e-07 pnfactor = -2.056585375e-12
+ eta0 = 0.08
+ etab = -0.07
+ u0 = 1.213715227e-02 lu0 = -1.231952847e-10 wu0 = -1.535139349e-09 pu0 = 1.231722127e-14
+ ua = -2.364765199e-10 lua = -1.285729009e-17 wua = -1.602149951e-16 pua = 1.285488217e-21
+ ub = 8.233226294e-19 lub = -4.886274540e-28 wub = -6.088798231e-27 pub = 4.885359438e-32
+ uc = -7.712301991e-11 luc = -4.394290090e-18 wuc = -5.475735247e-17 puc = 4.393467127e-22
+ ud = 0.0
+ up = 0.0
+ lp = 1.0
+ eu = 1.67
+ vtl = 0.0
+ xn = 3.0
+ vsat = 1.943910095e+05 lvsat = 4.500384746e-02 wvsat = 5.607940049e-01 pvsat = -4.499541914e-6
+ a0 = 1.519489998e+00 la0 = -1.777233629e-07 wa0 = -2.214615017e-06 pa0 = 1.776900788e-11
+ ags = 4.068572024e-01 lags = -1.645222972e-07 wags = -2.050116227e-06 pags = 1.644914855e-11
+ a1 = 0.0
+ a2 = 9.848889876e-01 la2 = 1.211632750e-07 wa2 = 1.509818428e-06 pa2 = -1.211405835e-11
+ b0 = 0.0
+ b1 = 0.0
+ keta = -1.635643990e-02 lketa = 2.557382988e-08 wketa = 3.186760974e-07 pketa = -2.556904041e-12
+ dwg = -5.722e-9
+ dwb = -1.7864e-8
+ pclm = 1.175724616e-01 lpclm = -3.376521839e-07 wpclm = -4.207491829e-06 ppclm = 3.375889484e-11
+ pdiblc1 = 0.39
+ pdiblc2 = 3.389781792e-03 lpdiblc2 = 1.908134338e-09 wpdiblc2 = 2.377730700e-08 ppdiblc2 = -1.907776982e-13
+ pdiblcb = -1.467376427e-04 lpdiblcb = 4.091481994e-10 wpdiblcb = 5.098405365e-09 ppdiblcb = -4.090715741e-14
+ drout = 0.56
+ pscbe1 = 7.505167307e+08 lpscbe1 = -3.242786410e+01 wpscbe1 = -4.040843795e+02 ppscbe1 = 3.242179101e-3
+ pscbe2 = 9.463130295e-09 lpscbe2 = 3.358822405e-16 wpscbe2 = 4.185436522e-15 ppscbe2 = -3.358193364e-20
+ pvag = 0.0
+ delta = 0.01
+ fprout = 0.0
+ pdits = 0.0
+ pditsl = 0.0
+ pditsd = 0.0
+ lambda = 0.0
+ lc = 5.0e-9
* Parameters FOR Asymmetric AND Bias-Dependent RDS Model
+ rdsw = 531.92
+ rsw = 0.0
+ rdw = 0.0
+ rdswmin = 0.0
+ rdwmin = 0.0
+ rswmin = 0.0
+ prwb = -0.32348
+ prwg = 0.02
+ wr = 1.0
* Impact Ionization Current Model Parameters
+ alpha0 = 1.0e-10
+ alpha1 = 1.0e-10
+ beta0 = 4.831958464e+00 lbeta0 = -3.174855852e-07 wbeta0 = -3.956195367e-06 pbeta0 = 3.174261265e-11
* Gidl Induced Drain Leakage Model Parameters
+ agidl = 8.808287513e-11 lagidl = 4.206189846e-17 wagidl = 5.241343089e-16 pagidl = -4.205402110e-21
+ bgidl = 1.142782668e+09 lbgidl = 9.356974617e+01 wbgidl = 1.165974814e+03 pbgidl = -9.355222243e-3
+ cgidl = 300.0
+ egidl = 0.1
* Gate Dielectric Tunneling Current Model Parameters
+ toxref = 4.23e-9
+ dlcig = 0.0
+ aigbacc = 0.43
+ bigbacc = 0.054
+ cigbacc = 0.075
+ nigbacc = 1.0
+ aigbinv = 0.35
+ bigbinv = 0.03
+ cigbinv = 0.006
+ eigbinv = 1.1
+ nigbinv = 3.0
+ aigc = 0.43
+ bigc = 0.054
+ cigc = 0.075
+ aigsd = 0.43
+ bigsd = 0.054
+ cigsd = 0.075
+ nigc = 1.0
+ poxedge = 1.0
+ pigcd = 1.0
+ ntox = 1.0
+ vfbsdoff = 0.0
* Charge AND Capacitance Model Parameters
+ dlc = -2.56e-9
+ dwc = 0.0
+ xpart = 0.0
+ cgso = 5.93202e-11
+ cgdo = 5.93202e-11
+ cgbo = 0.0
+ cgdl = 7.513892e-12
+ cgsl = 7.513892e-12
+ clc = 1.0e-7
+ cle = 0.6
+ cf = 1.2e-11
+ ckappas = 0.6
+ vfbcv = -0.1446893
+ acde = 0.552
+ moin = 14.504
+ noff = 4.0
+ voffcv = -0.1375
* High-Speed/RF Model Parameters
+ xrcrg1 = 12.0
+ xrcrg2 = 1.0
+ rbpb = 50.0
+ rbpd = 50.0
+ rbps = 50.0
+ rbdb = 50.0
+ rbsb = 50.0
+ gbmin = 1.0e-12
* Flicker AND Thermal Noise Model Parameters
+ ef = 0.88
+ noia = 1.2e+41
+ noib = 2.0e+25
+ noic = 0.0
+ em = 41000000.0
+ ntnoi = 1.0
+ lintnoi = -6.0e-8
+ af = 1.0
+ kf = 0.0
+ tnoia = 1.5
+ tnoib = 3.5
+ rnoia = 0.577
+ rnoib = 0.37
* Layout-Dependent Parasitics Model Parameters
+ xl = 0.0
+ xw = 0.0
+ dmcg = 0.0
+ dmdg = 0.0
+ dmcgt = 0.0
+ xgw = 0.0
+ xgl = 0.0
+ ngcon = 1.0
* Asymmetric Source/Drain Junction Diode Model Parameters
+ jss = 2.17e-5
+ jsws = 8.2e-10
+ ijthsfwd = 0.1
+ ijthsrev = 0.1
+ bvs = 12.8
+ xjbvs = 1.0
+ pbs = 0.6587
+ cjs = 0.0007432633326
+ mjs = 0.34629
+ pbsws = 0.7418
+ cjsws = 9.5078641e-11
+ mjsws = 0.26859
+ pbswgs = 1.3925
+ cjswgs = 2.54074486e-10
+ mjswgs = 0.70393
* Temperature Dependence Parameters
+ tnom = 30.0
+ kt1 = -4.425032302e-01 lkt1 = 6.524968605e-09 wkt1 = 8.130778772e-08 pkt1 = -6.523746609e-13
+ kt2 = -3.814108858e-02 lkt2 = 1.444944301e-09 wkt2 = 1.800548502e-08 pkt2 = -1.444673692e-13
+ at = 1.982182491e+04 lat = -1.590408086e-01 wat = -1.981811268e+00 pat = 1.590110234e-5
+ ute = -3.004780237e-01 lute = -1.460090468e-09 wute = -1.819422176e-08 pute = 1.459817022e-13
+ ua1 = 2.227215228e-09 lua1 = -1.252890908e-16 wua1 = -1.561230316e-15 pua1 = 1.252656266e-20
+ ub1 = -8.067459047e-19 lub1 = 1.055566648e-25 wub1 = 1.315344090e-24 pub1 = -1.055368962e-29
+ uc1 = 1.211389359e-10 luc1 = -1.034180261e-17 wuc1 = -1.288694463e-16 puc1 = 1.033986580e-21
+ kt1l = 0.0
+ prt = 0.0
+ tvoff = 0.0
+ njs = 1.2556
+ tpb = 0.0019551
+ tcj = 0.0012407
+ tpbsw = 0.00014242
+ tcjsw = 0.0
+ tpbswg = 0.0
+ tcjswg = 2.0e-12
+ xtis = 2.0
+ tvfbsdoff = 0.0
* DW AND DL Parameters
+ ll = 0.0
+ wl = 0.0
+ lln = 1.0
+ wln = 1.0
+ lw = 0.0
+ ww = 0.0
+ lwn = 1.0
+ wwn = 1.0
+ lwl = 0.0
+ wwl = 0.0
+ llc = 0.0
+ wlc = 0.0
+ lwc = 0.0
+ wwc = 0.0
+ lwlc = 0.0
+ wwlc = 0.0
* Stress Parameters
+ saref = 3.0e-6
+ sbref = 3.0e-6
+ kvth0 = 2.65e-8
+ lkvth0 = 0.0
+ wkvth0 = 2.5e-7
+ pkvth0 = 0.0
+ llodvth = 0.0
+ wlodvth = 1.0
+ wlod = 0.0
+ stk2 = 0.0
+ lodk2 = 1.0
+ lodeta0 = 1.0
+ ku0 = 4.5e-8
+ lku0 = 0.0
+ wku0 = 2.5e-7
+ pku0 = 0.0
+ tku0 = 0.0
+ llodku0 = 0.0
+ wlodku0 = 1.0
+ kvsat = 0.4
+ steta0 = 0.0
* Well Proximity Effect Parameters
.model sky130_fd_pr__pfet_01v8_hvt__model.3 pmos
* Model Flag Parameters
+ lmin = 2.0e-06 lmax = 4.0e-06 wmin = 7.0e-06 wmax = 0.0001
+ level = 54.0
+ version = 4.5
+ binunit = 2.0
+ mobmod = 0.0
+ capmod = 2.0
+ igcmod = 0.0
+ igbmod = 0.0
+ geomod = 0.0
+ diomod = 1.0
+ rdsmod = 0.0
+ rbodymod = 1.0
+ rgatemod = 0.0
+ permod = 1.0
+ acnqsmod = 0.0
+ trnqsmod = 0.0
+ fnoimod = 1.0
+ tnoimod = 1.0
+ tempmod = 0.0
* Process Parameters
+ toxe = {4.23e-09+sky130_fd_pr__pfet_01v8_hvt__toxe_slope_spectre*(4.23e-09*1.0*(sky130_fd_pr__pfet_01v8_hvt__toxe_slope/sqrt(l*w*mult)))}
+ toxm = 4.23e-9
+ dtox = 0.0
+ epsrox = 3.9
+ xj = 1.5e-7
+ ngate = 1.0e+23
+ ndep = 1.7e+17
+ nsd = 1.0e+20
+ rsh = 1.0
+ rshg = 0.1
* Basic Model Parameters
+ wint = 9.364e-9
+ lint = -1.176e-8
+ vth0 = {-1.123952891e+00+sky130_fd_pr__pfet_01v8_hvt__vth0_slope_spectre*(sky130_fd_pr__pfet_01v8_hvt__vth0_slope/sqrt(l*w*mult))} lvth0 = 3.427064401e-08 wvth0 = 6.998104626e-08 pvth0 = -2.953864571e-14
+ k1 = 4.495243286e-01 lk1 = -5.003572289e-08 wk1 = -5.987291272e-07 pk1 = 2.201142091e-12
+ k2 = 2.283522063e-02 lk2 = 2.724067672e-08 wk2 = 2.580908216e-07 pk2 = -9.033861336e-13
+ k3 = -13.778
+ k3b = 2.0
+ w0 = 0.0
+ dvt0 = 4.05
+ dvt1 = 0.3
+ dvt2 = 0.03
+ dvt0w = -4.254
+ dvt1w = 1147200.0
+ dvt2w = -0.00896
+ dsub = 5.440917032e-01 ldsub = 6.400735019e-08 wdsub = 1.590531746e-06 pdsub = -6.399536290e-12
+ minv = 0.0
+ voffl = 0.0
+ lpe0 = 0.0
+ lpeb = 0.0
+ vbm = -3.0
+ dvtp0 = 0.0
+ dvtp1 = 0.0
+ phin = 0.0
+ cdsc = 0.0
+ cdscb = 0.0
+ cdscd = 0.0
+ cit = 1.0e-5
+ voff = {-1.984452484e-01+sky130_fd_pr__pfet_01v8_hvt__voff_slope_spectre*(sky130_fd_pr__pfet_01v8_hvt__voff_slope/sqrt(l*w*mult))} lvoff = 9.551989155e-09 wvoff = 5.130896644e-08 pvoff = -1.464509434e-13
+ nfactor = {2.496487826e+00+sky130_fd_pr__pfet_01v8_hvt__nfactor_slope_spectre*(sky130_fd_pr__pfet_01v8_hvt__nfactor_slope/sqrt(l*w*mult))} lnfactor = -5.075814591e-09 wnfactor = 3.053533022e-06 pnfactor = -1.331122955e-11
+ eta0 = 7.396195640e-02 leta0 = 2.429418919e-08 weta0 = 6.036912795e-07 peta0 = -2.428963937e-12
+ etab = -6.472145874e-02 letab = -2.123831633e-08 wetab = -5.277552695e-07 petab = 2.123433882e-12
+ u0 = 1.171623015e-02 lu0 = 1.570393268e-09 wu0 = 1.997950969e-08 pu0 = -7.424739945e-14
+ ua = -2.981368707e-10 lua = 2.352343645e-16 wua = 3.857908333e-15 pua = -1.488151135e-20
+ ub = 8.397850866e-19 lub = -6.672565332e-26 wub = -1.733611397e-24 pub = 6.999575319e-30
+ uc = -8.628460866e-11 luc = 3.246754551e-17 wuc = 1.275237878e-16 puc = -2.940651008e-22
+ ud = 0.0
+ up = 0.0
+ lp = 1.0
+ eu = 1.67
+ vtl = 0.0
+ xn = 3.0
+ vsat = 2.811539150e+05 lvsat = -3.040884381e-01 wvsat = -5.996658712e-01 pvsat = 1.695916064e-7
+ a0 = 1.153198779e+00 la0 = 1.296056686e-06 wa0 = 4.733519295e-06 pa0 = -1.018694948e-11
+ ags = 8.426349409e-02 lags = 1.133439940e-06 wags = 2.733241817e-06 pags = -2.796788209e-12
+ a1 = 0.0
+ a2 = 1.232533907e+00 la2 = -8.752410119e-07 wa2 = -3.019636855e-06 pa2 = 6.110295569e-12
+ b0 = 0.0
+ b1 = 0.0
+ keta = 3.573847254e-02 lketa = -1.840310922e-07 wketa = -6.198263687e-07 pketa = 1.219179401e-12
+ dwg = -5.722e-9
+ dwb = -1.7864e-8
+ pclm = -5.743551892e-01 lpclm = 2.446332558e-06 wpclm = 8.595179659e-06 ppclm = -1.775290994e-11
+ pdiblc1 = 0.39
+ pdiblc2 = 7.272018917e-03 lpdiblc2 = -1.371212438e-08 wpdiblc2 = -4.577618178e-08 ppdiblc2 = 8.907215493e-14
+ pdiblcb = 6.311344871e-04 lpdiblcb = -2.720635872e-09 wpdiblcb = -4.359552385e-09 ppdiblcb = -2.852875248e-15
+ drout = 0.56
+ pscbe1 = 6.842376061e+08 lpscbe1 = 2.342475193e+02 wpscbe1 = 8.081687591e+02 ppscbe1 = -1.635345647e-3
+ pscbe2 = 1.012851704e-08 lpscbe2 = -2.341314636e-15 wpscbe2 = -6.259165504e-15 ppscbe2 = 8.442131502e-21
+ pvag = 0.0
+ delta = 0.01
+ fprout = 0.0
+ pdits = 0.0
+ pditsl = 0.0
+ pditsd = 0.0
+ lambda = 0.0
+ lc = 5.0e-9
* Parameters FOR Asymmetric AND Bias-Dependent RDS Model
+ rdsw = 531.92
+ rsw = 0.0
+ rdw = 0.0
+ rdswmin = 0.0
+ rdwmin = 0.0
+ rswmin = 0.0
+ prwb = -0.32348
+ prwg = 0.02
+ wr = 1.0
* Impact Ionization Current Model Parameters
+ alpha0 = 1.0e-10
+ alpha1 = 1.0e-10
+ beta0 = 4.333091444e+00 lbeta0 = 1.689715849e-06 wbeta0 = -7.088793101e-06 pbeta0 = 4.434668229e-11
* Gidl Induced Drain Leakage Model Parameters
+ agidl = 1.730263627e-10 lagidl = -2.997099225e-16 wagidl = -9.456294062e-16 pagidl = 1.708221593e-21
+ bgidl = 1.334029333e+09 lbgidl = -6.759150357e+02 wbgidl = -2.331949629e+03 pbgidl = 4.718746713e-3
+ cgidl = 300.0
+ egidl = 0.1
* Gate Dielectric Tunneling Current Model Parameters
+ toxref = 4.23e-9
+ dlcig = 0.0
+ aigbacc = 0.43
+ bigbacc = 0.054
+ cigbacc = 0.075
+ nigbacc = 1.0
+ aigbinv = 0.35
+ bigbinv = 0.03
+ cigbinv = 0.006
+ eigbinv = 1.1
+ nigbinv = 3.0
+ aigc = 0.43
+ bigc = 0.054
+ cigc = 0.075
+ aigsd = 0.43
+ bigsd = 0.054
+ cigsd = 0.075
+ nigc = 1.0
+ poxedge = 1.0
+ pigcd = 1.0
+ ntox = 1.0
+ vfbsdoff = 0.0
* Charge AND Capacitance Model Parameters
+ dlc = -2.56e-9
+ dwc = 0.0
+ xpart = 0.0
+ cgso = 5.93202e-11
+ cgdo = 5.93202e-11
+ cgbo = 0.0
+ cgdl = 7.513892e-12
+ cgsl = 7.513892e-12
+ clc = 1.0e-7
+ cle = 0.6
+ cf = 1.2e-11
+ ckappas = 0.6
+ vfbcv = -0.1446893
+ acde = 0.552
+ moin = 14.504
+ noff = 4.0
+ voffcv = -0.1375
* High-Speed/RF Model Parameters
+ xrcrg1 = 12.0
+ xrcrg2 = 1.0
+ rbpb = 50.0
+ rbpd = 50.0
+ rbps = 50.0
+ rbdb = 50.0
+ rbsb = 50.0
+ gbmin = 1.0e-12
* Flicker AND Thermal Noise Model Parameters
+ ef = 0.88
+ noia = 1.2e+41
+ noib = 2.0e+25
+ noic = 0.0
+ em = 41000000.0
+ ntnoi = 1.0
+ lintnoi = -6.0e-8
+ af = 1.0
+ kf = 0.0
+ tnoia = 1.5
+ tnoib = 3.5
+ rnoia = 0.577
+ rnoib = 0.37
* Layout-Dependent Parasitics Model Parameters
+ xl = 0.0
+ xw = 0.0
+ dmcg = 0.0
+ dmdg = 0.0
+ dmcgt = 0.0
+ xgw = 0.0
+ xgl = 0.0
+ ngcon = 1.0
* Asymmetric Source/Drain Junction Diode Model Parameters
+ jss = 2.17e-5
+ jsws = 8.2e-10
+ ijthsfwd = 0.1
+ ijthsrev = 0.1
+ bvs = 12.8
+ xjbvs = 1.0
+ pbs = 0.6587
+ cjs = 0.0007432633326
+ mjs = 0.34629
+ pbsws = 0.7418
+ cjsws = 9.5078641e-11
+ mjsws = 0.26859
+ pbswgs = 1.3925
+ cjswgs = 2.54074486e-10
+ mjswgs = 0.70393
* Temperature Dependence Parameters
+ tnom = 30.0
+ kt1 = -4.275119288e-01 lkt1 = -5.379283214e-08 wkt1 = -3.280801412e-07 pkt1 = 9.948058590e-13
+ kt2 = -3.544205663e-02 lkt2 = -9.414664724e-09 wkt2 = -1.058759390e-08 pkt2 = -2.942254429e-14
+ at = -3.182745871e+05 lat = 1.201296867e+00 wat = 5.266760403e+00 pat = -1.326367075e-5
+ ute = -2.934644332e-01 lute = -2.967941193e-08 wute = -9.632104114e-07 pute = 3.948273241e-12
+ ua1 = 1.926843400e-09 lua1 = 1.083262963e-15 wua1 = 7.551048735e-15 pua1 = -2.413687434e-20
+ ub1 = -5.658354142e-19 lub1 = -8.637515121e-25 wub1 = -5.146600064e-24 pub1 = 1.544607193e-29
+ uc1 = 8.410993789e-11 luc1 = 1.386451113e-16 wuc1 = 1.846585998e-15 puc1 = -6.914297909e-21
+ kt1l = 0.0
+ prt = 0.0
+ tvoff = 0.0
+ njs = 1.2556
+ tpb = 0.0019551
+ tcj = 0.0012407
+ tpbsw = 0.00014242
+ tcjsw = 0.0
+ tpbswg = 0.0
+ tcjswg = 2.0e-12
+ xtis = 2.0
+ tvfbsdoff = 0.0
* DW AND DL Parameters
+ ll = 0.0
+ wl = 0.0
+ lln = 1.0
+ wln = 1.0
+ lw = 0.0
+ ww = 0.0
+ lwn = 1.0
+ wwn = 1.0
+ lwl = 0.0
+ wwl = 0.0
+ llc = 0.0
+ wlc = 0.0
+ lwc = 0.0
+ wwc = 0.0
+ lwlc = 0.0
+ wwlc = 0.0
* Stress Parameters
+ saref = 3.0e-6
+ sbref = 3.0e-6
+ kvth0 = 2.65e-8
+ lkvth0 = 0.0
+ wkvth0 = 2.5e-7
+ pkvth0 = 0.0
+ llodvth = 0.0
+ wlodvth = 1.0
+ wlod = 0.0
+ stk2 = 0.0
+ lodk2 = 1.0
+ lodeta0 = 1.0
+ ku0 = 4.5e-8
+ lku0 = 0.0
+ wku0 = 2.5e-7
+ pku0 = 0.0
+ tku0 = 0.0
+ llodku0 = 0.0
+ wlodku0 = 1.0
+ kvsat = 0.4
+ steta0 = 0.0
* Well Proximity Effect Parameters
.model sky130_fd_pr__pfet_01v8_hvt__model.4 pmos
* Model Flag Parameters
+ lmin = 1.0e-06 lmax = 2.0e-06 wmin = 7.0e-06 wmax = 0.0001
+ level = 54.0
+ version = 4.5
+ binunit = 2.0
+ mobmod = 0.0
+ capmod = 2.0
+ igcmod = 0.0
+ igbmod = 0.0
+ geomod = 0.0
+ diomod = 1.0
+ rdsmod = 0.0
+ rbodymod = 1.0
+ rgatemod = 0.0
+ permod = 1.0
+ acnqsmod = 0.0
+ trnqsmod = 0.0
+ fnoimod = 1.0
+ tnoimod = 1.0
+ tempmod = 0.0
* Process Parameters
+ toxe = {4.23e-09+sky130_fd_pr__pfet_01v8_hvt__toxe_slope_spectre*(4.23e-09*1.0*(sky130_fd_pr__pfet_01v8_hvt__toxe_slope/sqrt(l*w*mult)))}
+ toxm = 4.23e-9
+ dtox = 0.0
+ epsrox = 3.9
+ xj = 1.5e-7
+ ngate = 1.0e+23
+ ndep = 1.7e+17
+ nsd = 1.0e+20
+ rsh = 1.0
+ rshg = 0.1
* Basic Model Parameters
+ wint = 9.364e-9
+ lint = -1.176e-8
+ vth0 = {-1.105918917e+00+sky130_fd_pr__pfet_01v8_hvt__vth0_slope_spectre*(sky130_fd_pr__pfet_01v8_hvt__vth0_slope/sqrt(l*w*mult))} lvth0 = -2.221462798e-09 wvth0 = -5.437815059e-08 pvth0 = 2.221046763e-13
+ k1 = 4.209362589e-01 lk1 = 7.812808045e-09 wk1 = 8.750771989e-07 pk1 = -7.811344862e-13
+ k2 = 3.762063953e-02 lk2 = -2.677914137e-09 wk2 = -3.206666877e-07 pk2 = 2.677412617e-13
+ k3 = -13.778
+ k3b = 2.0
+ w0 = 0.0
+ dvt0 = 4.05
+ dvt1 = 0.3
+ dvt2 = 0.03
+ dvt0w = -4.254
+ dvt1w = 1147200.0
+ dvt2w = -0.00896
+ dsub = 6.256231254e-01 ldsub = -1.009731133e-07 wdsub = -6.561083554e-06 pdsub = 1.009542030e-11
+ minv = 0.0
+ voffl = 0.0
+ lpe0 = 0.0
+ lpeb = 0.0
+ vbm = -3.0
+ dvtp0 = 0.0
+ dvtp1 = 0.0
+ phin = 0.0
+ cdsc = 0.0
+ cdscb = 0.0
+ cdscd = 0.0
+ cit = 1.0e-5
+ voff = {-1.943410352e-01+sky130_fd_pr__pfet_01v8_hvt__voff_slope_spectre*(sky130_fd_pr__pfet_01v8_hvt__voff_slope/sqrt(l*w*mult))} lvoff = 1.247031615e-09 wvoff = 4.054992464e-08 pvoff = -1.246798071e-13
+ nfactor = {2.457363595e+00+sky130_fd_pr__pfet_01v8_hvt__nfactor_slope_spectre*(sky130_fd_pr__pfet_01v8_hvt__nfactor_slope/sqrt(l*w*mult))} lnfactor = 7.409284747e-08 wnfactor = 1.361749441e-07 pnfactor = -7.407897137e-12
+ eta0 = 1.028159145e-01 leta0 = -3.409237215e-08 weta0 = -2.281164156e-06 peta0 = 3.408598733e-12
+ etab = -7.525560365e-02 letab = 7.773658347e-11 wetab = 5.254619384e-07 petab = -7.772202496e-15
+ u0 = 1.248738789e-02 lu0 = 9.940161381e-12 wu0 = -1.622155057e-08 pu0 = -9.938299787e-16
+ ua = -1.795683175e-10 lua = -4.691474330e-18 wua = -3.728164909e-15 pua = 4.690595711e-22
+ ub = 8.021034188e-19 lub = 9.523955049e-27 wub = 2.196071759e-24 pub = -9.522171402e-31
+ uc = -6.956153739e-11 luc = -1.371923677e-18 wuc = -8.558592946e-17 puc = 1.371666743e-22
+ ud = 0.0
+ up = 0.0
+ lp = 1.0
+ eu = 1.67
+ vtl = 0.0
+ xn = 3.0
+ vsat = 1.333175302e+05 lvsat = -4.938556796e-03 wvsat = -7.598676897e-01 pvsat = 4.937631903e-7
+ a0 = 1.792548923e+00 la0 = 2.318882285e-09 wa0 = -1.861774140e-07 pa0 = -2.318448005e-13
+ ags = 6.566084449e-01 lags = -2.471151461e-08 wags = 1.301161385e-07 pags = 2.470688664e-12
+ a1 = 0.0
+ a2 = 0.8
+ b0 = 0.0
+ b1 = 0.0
+ keta = -5.399658834e-02 lketa = -2.450401856e-09 wketa = -1.383954429e-07 pketa = 2.449942945e-13
+ dwg = -5.722e-9
+ dwb = -1.7864e-8
+ pclm = 6.432702753e-01 lpclm = -1.755692243e-08 wpclm = -1.045581678e-06 ppclm = 1.755363437e-12
+ pdiblc1 = 3.865081863e-01 lpdiblc1 = 7.065754814e-09 wpdiblc1 = 3.491159731e-07 ppdiblc1 = -7.064431539e-13